 ****** HSPICE -- F-2011.09-SP2 32-BIT (Feb 27 2012) linux ******               
  Copyright (C) 2011 Synopsys, Inc. All Rights Reserved.                        
  Unpublished-rights reserved under US copyright laws.
  This program is protected by law and is subject to the
  terms and conditions of the license agreement from Synopsys.
  Use of this program is your acceptance to be bound by the
  license agreement. HSPICE is the trademark of Synopsys, Inc.
  Input File: task5wt.sp                                                        
  Command line options: -i task5wt.sp -o task5wt.lis
 lic:  
 lic: FLEXlm: v10.8 
 lic: USER:   makoenig             HOSTNAME: corn06.stanford.edu 
 lic: HOSTID: 001b213a661d         PID:      4116 
 lic: Using FLEXlm license file: 
 lic: 27000@cadlic0.stanford.edu 
 lic: Checkout 1 hspice 
 lic: License/Maintenance for hspice will expire on 16-nov-2013/2012.06 
 lic: 4(in_use)/100(total) FLOATING license(s) on SERVER cadlic0.stanford.edu 
 lic:   
 Init: read install configuration file: /usr/class/ee/synopsys/hspice/F-2011.09-SP2/hspice/meta.cfg

 **warning**  runlvl smaller than 5, reset to 5  when accurate turned on
 scientific notation:
 a=10**-18  f=10**-15  p=10**-12  n=10**-9  u=10**-6
 m=10**-3   k=10**3    x=10**6    g=10**9 
  **warning** (schem.task1.ckt:229) Global net name, "vdd", in subckt pin list. The pin will be connected to the local net. Recommend to not use global net names in subckt pin lists.

 **warning**  runlvl smaller than 5, reset to 5  when accurate turned on
1****** HSPICE -- F-2011.09-SP2 32-BIT (Feb 27 2012) linux ******               
 ******  
 * file: task5wt.sp

  ******  circuit name directory
 circuit number to circuit name directory
   number circuitname                     definition         multiplier
        0 main circuit
        1 xi17.                           decoder_schematic
                                                                 1.00 
        2 xcbl.                           mc                 1.00 
        3 xi5.                            mc               254.00 
        4 xi4.                            mc               254.00 
        5 xi3.                            mc                64.52k
        6 xi2.                            mc               254.00 
        7 xctr.                           mc                 1.00 
        8 xi1.                            mc               254.00 
        9 xcbr.                           mc_wcw_schematic   1.00 
       10 xwritel.                        write              1.00 
       11 xwritem.                        write            254.00 
       12 xwriter.                        write              1.00 
       13 xctl.                           schem_mc_wcr_schematic
                                                                 1.00 
       14 xclk_gen.                       clk_gen            1.00 
       15 xa0_gen.                        a0_gen             1.00 
       16 xa255_gen.                      a255_gen           1.00 
       17 xi17.xi5.                       predecode_24       1.00 
       18 xi17.xi1.                       decode_stage       1.00 
       19 xi17.xi4.                       predecode_416      1.00 
       20 xwritel.xu0.                    inv_pcell_13       1.00 
       21 xwritel.xu2.                    inv_pcell_14       1.00 
       22 xwritel.xu1.                    inv_pcell_14       1.00 
       23 xwritem.xu0.                    inv_pcell_13     254.00 
       24 xwritem.xu2.                    inv_pcell_14     254.00 
       25 xwritem.xu1.                    inv_pcell_14     254.00 
       26 xwriter.xu0.                    inv_pcell_13       1.00 
       27 xwriter.xu2.                    inv_pcell_14       1.00 
       28 xwriter.xu1.                    inv_pcell_14       1.00 
       29 xclk_gen.xgen.                  signal_gen         1.00 
       30 xa0_gen.xgen.                   signal_gen         1.00 
       31 xa255_gen.xgen.                 signal_gen         1.00 
       32 xi17.xi5.xi36.                  nand3              1.00 
       33 xi17.xi5.xi37.                  nand3              1.00 
       34 xi17.xi5.xi38.                  nand3              1.00 
       35 xi17.xi5.xi39.                  nand3              1.00 
       36 xi17.xi5.xu3.                   inv_pcell_01       1.00 
       37 xi17.xi5.xu2.                   inv_pcell_01       1.00 
       38 xi17.xi5.xu1.                   inv_pcell_01       1.00 
       39 xi17.xi5.xu0.                   inv_pcell_01       1.00 
       40 xi17.xi1.xu7.                   inv_pcell_2        1.00 
       41 xi17.xi1.xu5.                   inv_pcell_2        1.00 
       42 xi17.xi1.xu1.                   nand_pcell_3       1.00 
       43 xi17.xi1.xu3.                   nand_pcell_3       1.00 
       44 xi17.xi1.xu2.                   nand_pcell_4       1.00 
       45 xi17.xi1.xu0.                   nand_pcell_4       1.00 
       46 xi17.xi1.xu6.                   inv_pcell_5        1.00 
       47 xi17.xi1.xu8.                   inv_pcell_5        1.00 
       48 xi17.xi4.xi17.                  nand_pcell_6       1.00 
       49 xi17.xi4.xi15.                  nand_pcell_6       1.00 
       50 xi17.xi4.xu2.                   inv_pcell_78       1.00 
       51 xi17.xi4.xu0.                   inv_pcell_78       1.00 
       52 xi17.xi4.xu13.                  inv_pcell_910      1.00 
       53 xi17.xi4.xu15.                  inv_pcell_910      1.00 
       54 xi17.xi4.xi16.                  nand_pcell_11      1.00 
       55 xi17.xi4.xi18.                  nand_pcell_11      1.00 
       56 xi17.xi4.xu14.                  inv_pcell_1213     1.00 
       57 xi17.xi4.xu12.                  inv_pcell_1213     1.00 
       58 xi17.xi4.xu1.                   inv_pcell_1415     1.00 
       59 xi17.xi4.xu3.                   inv_pcell_1415     1.00 
       60 xi17.xi4.xu10.                  inv_pcell_16       1.00 
       61 xi17.xi4.xu8.                   inv_pcell_16       1.00 
       62 xi17.xi4.xu9.                   inv_pcell_17       1.00 
       63 xi17.xi4.xu11.                  inv_pcell_17       1.00 
       64 xclk_gen.xgen.x_0.              inv_chain_stimulus
                                                                 1.00 
       65 xa0_gen.xgen.x_0.               inv_chain_stimulus
                                                                 1.00 
       66 xa255_gen.xgen.x_0.             inv_chain_stimulus
                                                                 1.00 
       67 xclk_gen.xgen.x_0.x_0.          inv_stimulus       1.00 
       68 xclk_gen.xgen.x_0.x_1.          inv_stimulus       4.00 
       69 xclk_gen.xgen.x_0.x_2.          inv_stimulus      16.00 
       70 xclk_gen.xgen.x_0.x_3.          inv_stimulus      64.00 
       71 xa0_gen.xgen.x_0.x_0.           inv_stimulus       1.00 
       72 xa0_gen.xgen.x_0.x_1.           inv_stimulus       4.00 
       73 xa0_gen.xgen.x_0.x_2.           inv_stimulus      16.00 
       74 xa0_gen.xgen.x_0.x_3.           inv_stimulus      64.00 
       75 xa255_gen.xgen.x_0.x_0.         inv_stimulus       1.00 
       76 xa255_gen.xgen.x_0.x_1.         inv_stimulus       4.00 
       77 xa255_gen.xgen.x_0.x_2.         inv_stimulus      16.00 
       78 xa255_gen.xgen.x_0.x_3.         inv_stimulus      64.00 


 circuit parameter definitions
  parameter          =  value 

     0:supply                                                  =   1.0000       
     0:tcyc                                                    =   1.0000n      
     0:trf                                                     =  50.0000p      
     0:vsense                                                  = 150.0000m      
     0:td                                                      = 180.0000p      
     0:s1_wn                                                   =   9.0000       
     0:s1_wp                                                   =   3.0000       
     0:s2_wn                                                   =   7.0000       
     0:s2_wp                                                   =  41.0000       
     0:s3_wn                                                   =  24.0000       
     0:s3_wp                                                   =   8.0000       
     0:s4_wn                                                   =  22.0000       
     0:s4_wp                                                   = 133.0000       
     0:s5_wn                                                   = 277.0000       
     0:s5_wp                                                   = 138.0000       
     0:s6_wn                                                   = 369.0000       
     0:s6_wp                                                   =   2.2130k      
     0:s7_wn                                                   = 296.0000       
     0:s7_wp                                                   = 104.0000       
     0:s8_wn                                                   = 259.0000       
     0:s8_wp                                                   =   1.5560k      
     0:td_ck2wlr                                               =   0.           
     0:td_ck2wlf                                               =   0.           
     0:wl_pw                                                   =   0.           
     0:max_bit_b                                               =   0.           
     0:min_bit                                                 =   0.           
     0:supply_voltage                                          =   0.           
    32:nl                                                      =   2.0000       
    32:nw                                                      =   9.0000       
    32:nm                                                      =   1.0000       
    32:pl                                                      =   2.0000       
    32:pw                                                      =   3.0000       
    32:pm                                                      =   1.0000       
    67:wp                                                      =  24.0000       
    67:lp                                                      =   2.0000       
    67:wn                                                      =   8.0000       
    67:ln                                                      =   2.0000       
    68:wp                                                      =  24.0000       
    68:lp                                                      =   2.0000       
    68:wn                                                      =   8.0000       
    68:ln                                                      =   2.0000       
    69:wp                                                      =  24.0000       
    69:lp                                                      =   2.0000       
    69:wn                                                      =   8.0000       
    69:ln                                                      =   2.0000       
    70:wp                                                      =  24.0000       
    70:lp                                                      =   2.0000       
    70:wn                                                      =   8.0000       
    70:ln                                                      =   2.0000       
    71:wp                                                      =  24.0000       
    71:lp                                                      =   2.0000       
    71:wn                                                      =   8.0000       
    71:ln                                                      =   2.0000       
    72:wp                                                      =  24.0000       
    72:lp                                                      =   2.0000       
    72:wn                                                      =   8.0000       
    72:ln                                                      =   2.0000       
    73:wp                                                      =  24.0000       
    73:lp                                                      =   2.0000       
    73:wn                                                      =   8.0000       
    73:ln                                                      =   2.0000       
    74:wp                                                      =  24.0000       
    74:lp                                                      =   2.0000       
    74:wn                                                      =   8.0000       
    74:ln                                                      =   2.0000       
    75:wp                                                      =  24.0000       
    75:lp                                                      =   2.0000       
    75:wn                                                      =   8.0000       
    75:ln                                                      =   2.0000       
    76:wp                                                      =  24.0000       
    76:lp                                                      =   2.0000       
    76:wn                                                      =   8.0000       
    76:ln                                                      =   2.0000       
    77:wp                                                      =  24.0000       
    77:lp                                                      =   2.0000       
    77:wn                                                      =   8.0000       
    77:ln                                                      =   2.0000       
    78:wp                                                      =  24.0000       
    78:lp                                                      =   2.0000       
    78:wn                                                      =   8.0000       
    78:ln                                                      =   2.0000       




 constants  - tnom         kt           vt           gapsi        ni
            298.15000    4.1163e-21    25.69184m     1.11562    1.2565e+16 
  **warning** (/usr/class/ee313/ee313_spice_header.h:18) Both nodes of element vgnd are connected together; Line ignored.
  **info** (/usr/class/ee313/project/stimulus.sp:38) DC voltage reset to initial transient source value              in source       14:vsrc                new dc=  0.0000D+00
 ** warning** associated with encrypted blocks were suppressed

1****** HSPICE -- F-2011.09-SP2 32-BIT (Feb 27 2012) linux ******               
 ******  
 * file: task5wt.sp

  ******  circuit element summary tnom=  25.000 temp=  25.000 *****


 **** capacitors
  
  
                                                                      
 element name        1:c_sideloa    1:c_sideloa    2:c2       2:c1    
 node1               1:net17        1:net14        0:bl0      0:bl_b0 
 node2               0:0            0:0            0:0        0:0     
 model                                                                
 cap eff            22.5300f       22.5300f       88.0000a   88.0000a 
 tc1                 0.             0.             0.         0.      
 tc2                 0.             0.             0.         0.      
 scale               1.0000         1.0000         1.0000     1.0000  
 ic                  0.             0.             0.         0.      
 m                   1.0000         1.0000         1.0000     1.0000  
 w                   0.             0.             0.         0.      
 l                   0.             0.             0.         0.      
 temp               25.0000        25.0000        25.0000    25.0000  
  
  
                                                              
 element name        2:c0       3:c2       3:c1       3:c0    
 node1               0:wl255    0:net57    0:net56    0:wl255 
 node2               0:0        0:0        0:0        0:0     
 model                                                        
 cap eff           140.0000a   22.3520f   22.3520f   35.5600f 
 tc1                 0.         0.         0.         0.      
 tc2                 0.         0.         0.         0.      
 scale               1.0000     1.0000     1.0000     1.0000  
 ic                  0.         0.         0.         0.      
 m                   1.0000   254.0000   254.0000   254.0000  
 w                   0.         0.         0.         0.      
 l                   0.         0.         0.         0.      
 temp               25.0000    25.0000    25.0000    25.0000  
  
  
                                                               
 element name        4:c2       4:c1        5:c2       5:c1    
 node1               0:bl63     0:bl_b63    0:net57    0:net56 
 node2               0:0        0:0         0:0        0:0     
 model                                                         
 cap eff            22.3520f   22.3520f     5.6774p    5.6774p 
 tc1                 0.         0.          0.         0.      
 tc2                 0.         0.          0.         0.      
 scale               1.0000     1.0000      1.0000     1.0000  
 ic                  0.         0.          0.         0.      
 m                 254.0000   254.0000     64.5160k   64.5160k 
 w                   0.         0.          0.         0.      
 l                   0.         0.          0.         0.      
 temp               25.0000    25.0000     25.0000    25.0000  
  
  
                                                               
 element name        6:c2       6:c1       7:c2       7:c1     
 node1               0:bl0      0:bl_b0    0:bl63     0:bl_b63 
 node2               0:0        0:0        0:0        0:0      
 model                                                         
 cap eff            22.3520f   22.3520f   88.0000a   88.0000a  
 tc1                 0.         0.         0.         0.       
 tc2                 0.         0.         0.         0.       
 scale               1.0000     1.0000     1.0000     1.0000   
 ic                  0.         0.         0.         0.       
 m                 254.0000   254.0000     1.0000     1.0000   
 w                   0.         0.         0.         0.       
 l                   0.         0.         0.         0.       
 temp               25.0000    25.0000    25.0000    25.0000   
  
  
                                                              
 element name        7:c0       8:c2       8:c1       8:c0    
 node1               0:wl0      0:net57    0:net56    0:wl0   
 node2               0:0        0:0        0:0        0:0     
 model                                                        
 cap eff           140.0000a   22.3520f   22.3520f   35.5600f 
 tc1                 0.         0.         0.         0.      
 tc2                 0.         0.         0.         0.      
 scale               1.0000     1.0000     1.0000     1.0000  
 ic                  0.         0.         0.         0.      
 m                   1.0000   254.0000   254.0000   254.0000  
 w                   0.         0.         0.         0.      
 l                   0.         0.         0.         0.      
 temp               25.0000    25.0000    25.0000    25.0000  
  
  
                                                               
 element name        9:c2       9:c1        9:c0      13:c2    
 node1               0:bl63     0:bl_b63    0:wl255    0:bl0   
 node2               0:0        0:0         0:0        0:0     
 model                                                         
 cap eff            88.0000a   88.0000a   140.0000a   88.0000a 
 tc1                 0.         0.          0.         0.      
 tc2                 0.         0.          0.         0.      
 scale               1.0000     1.0000      1.0000     1.0000  
 ic                  0.         0.          0.         0.      
 m                   1.0000     1.0000      1.0000     1.0000  
 w                   0.         0.          0.         0.      
 l                   0.         0.          0.         0.      
 temp               25.0000    25.0000     25.0000    25.0000  
  
  
                                        
 element name       13:c1      13:c0    
 node1               0:bl_b0    0:wl0   
 node2               0:0        0:0     
 model                                  
 cap eff            88.0000a  140.0000a 
 tc1                 0.         0.      
 tc2                 0.         0.      
 scale               1.0000     1.0000  
 ic                  0.         0.      
 m                   1.0000     1.0000  
 w                   0.         0.      
 l                   0.         0.      
 temp               25.0000    25.0000  


 **** voltage-controlled voltage sources
      name        +             -          dimension  function  scale
       29:e_0            29:net_3           0:0              1      poly       1.    
       30:e_0            30:net_3           0:0              1      poly       1.    
       31:e_0            31:net_3           0:0              1      poly       1.    


 **** current-controlled current sources
      name        +             -          dimension  function  multiplier
       29:f_0            29:net_4           0:0              1      poly       1.    
       29:f_1            29:net_4           0:0              1      poly       1.    
       30:f_0            30:net_4           0:0              1      poly       1.    
       30:f_1            30:net_4           0:0              1      poly       1.    
       31:f_0            31:net_4           0:0              1      poly       1.    
       31:f_1            31:net_4           0:0              1      poly       1.    


 **** independent sources

     name         node1        node2      dc volt    ac mag    ac phase    type
  v_supply  vdd               0                    1.0000     0.         0.      dc   
  v_supply1  vdd!              0                    1.0000     0.         0.      dc   
  vblpc_b  blpc_b            0                    1.0000     0.         0.      dc   
  vdata  wrdata            0                    0.         0.         0.      dc   
  vwren  wren              0                    1.0000     0.         0.      dc   
 xcbr.v10 xcbr.net039            wl255             -106.0000m    0.         0.      dc   
 xcbr.v7 xcbr.bit              xcbr.net30              -87.0000m    0.         0.      dc   
 xcbr.v8 xcbr.net029           xcbr.bit_b              -87.0000m    0.         0.      dc   
 xctl.v1 xctl.net056            wl0                106.0000m    0.         0.      dc   
 xctl.v7 xctl.bit              xctl.net30               87.0000m    0.         0.      dc   
 xctl.v8 xctl.net029           xctl.bit_b               87.0000m    0.         0.      dc   
 xclk_gen.vsrc xclk_gen.src               0                    0.         0.         0.      pulse
             initial value     0.     
             pulsed value.     1.0000 
             delay time...   500.0000p
             risetime.....    50.0000p
             falltime.....    50.0000p
             width........   450.0000p
             period.......     1.0000n

 xa0_gen.vsrc xa0_gen.src               0                    0.         0.         0.      pulse
             initial value     0.     
             pulsed value.     1.0000 
             delay time...   375.0000p
             risetime.....    50.0000p
             falltime.....    50.0000p
             width........   950.0000p
             period.......     2.0000n

 xa255_gen.vsrc xa255_gen.src               0                    0.         0.         0.      pulse
             initial value     0.     
             pulsed value.     1.0000 
             delay time...     1.3750n
             risetime.....    50.0000p
             falltime.....    50.0000p
             width........   950.0000p
             period.......     2.0000n

 xclk_gen.xgen.v_monitor xclk_gen.xgen.net_4             0                    1.0000     0.         0.      dc   
 xclk_gen.xgen.v_sense xclk_gen.xgen.net_3             ck                   0.         0.         0.      dc   
 xa0_gen.xgen.v_monitor xa0_gen.xgen.net_4             0                    1.0000     0.         0.      dc   
 xa0_gen.xgen.v_sense xa0_gen.xgen.net_3             a0                   0.         0.         0.      dc   
 xa255_gen.xgen.v_monitor xa255_gen.xgen.net_4             0                    1.0000     0.         0.      dc   
 xa255_gen.xgen.v_sense xa255_gen.xgen.net_3             a255                 0.         0.         0.      dc   
 xclk_gen.xgen.x_0.x_0.vstimulus_supply xclk_gen.xgen.x_0.x_0.vdd_stimulus      0                    1.0000     0.         0.      dc   
 xclk_gen.xgen.x_0.x_1.vstimulus_supply xclk_gen.xgen.x_0.x_1.vdd_stimulus      0                    1.0000     0.         0.      dc   
 xclk_gen.xgen.x_0.x_2.vstimulus_supply xclk_gen.xgen.x_0.x_2.vdd_stimulus      0                    1.0000     0.         0.      dc   
 xclk_gen.xgen.x_0.x_3.vstimulus_supply xclk_gen.xgen.x_0.x_3.vdd_stimulus      0                    1.0000     0.         0.      dc   
 xa0_gen.xgen.x_0.x_0.vstimulus_supply xa0_gen.xgen.x_0.x_0.vdd_stimulus      0                    1.0000     0.         0.      dc   
 xa0_gen.xgen.x_0.x_1.vstimulus_supply xa0_gen.xgen.x_0.x_1.vdd_stimulus      0                    1.0000     0.         0.      dc   
 xa0_gen.xgen.x_0.x_2.vstimulus_supply xa0_gen.xgen.x_0.x_2.vdd_stimulus      0                    1.0000     0.         0.      dc   
 xa0_gen.xgen.x_0.x_3.vstimulus_supply xa0_gen.xgen.x_0.x_3.vdd_stimulus      0                    1.0000     0.         0.      dc   
 xa255_gen.xgen.x_0.x_0.vstimulus_supply xa255_gen.xgen.x_0.x_0.vdd_stimulus      0                    1.0000     0.         0.      dc   
 xa255_gen.xgen.x_0.x_1.vstimulus_supply xa255_gen.xgen.x_0.x_1.vdd_stimulus      0                    1.0000     0.         0.      dc   
 xa255_gen.xgen.x_0.x_2.vstimulus_supply xa255_gen.xgen.x_0.x_2.vdd_stimulus      0                    1.0000     0.         0.      dc   
 xa255_gen.xgen.x_0.x_3.vstimulus_supply xa255_gen.xgen.x_0.x_3.vdd_stimulus      0                    1.0000     0.         0.      dc   


 **** mosfets


 **** BSIM4 Model (Level 54)
  
  
                                                              
 element name        2:m5       2:m4       2:m1       2:m0    
 drain               2:bit      2:bit_b    0:bl_b0    0:bl0   
 gate                2:bit_b    2:bit      0:wl255    0:wl255 
 source              0:0        0:0        2:bit_b    2:bit   
 bulk                0:0        0:0        0:0        0:0     
 model               0:nmos     0:nmos     0:nmos     0:nmos  
 w eff             122.0000n  122.0000n   78.0000n   78.0000n 
 l eff              29.0000n   29.0000n   29.0000n   29.0000n 
 rd eff              0.         0.         0.         0.      
 rs eff              0.         0.         0.         0.      
 cdsat              11.4887a   11.4887a    7.8700a    7.8700a 
 cssat              11.4887a   11.4887a    7.8700a    7.8700a 
 capbd             178.5462a  178.5462a  133.6681a  133.6681a 
 capbs             152.1990a  152.1990a  116.1033a  116.1033a 
 temp               25.0000    25.0000    25.0000    25.0000  
 aic                                                          
 nf                  1.0000     1.0000     1.0000     1.0000  
 min                 0.         0.         0.         0.      
 rbdb               15.0000    15.0000    15.0000    15.0000  
 rbsb               15.0000    15.0000    15.0000    15.0000  
 rbpb                5.0000     5.0000     5.0000     5.0000  
 rbps               15.0000    15.0000    15.0000    15.0000  
 rbpd               15.0000    15.0000    15.0000    15.0000  
 trnqsmod            0.         0.         0.         0.      
 acnqsmod            0.         0.         0.         0.      
 rbodymod            1.0000     1.0000     1.0000     1.0000  
 rgatemod            1.0000     1.0000     1.0000     1.0000  
 geomod              0.         0.         0.         0.      
 rgeomod             0.         0.         0.         0.      
 delvto              0.         0.         0.         0.      
 mulu0               1.0000     1.0000     1.0000     1.0000  
 delk1               0.         0.         0.         0.      
 delnfct             0.         0.         0.         0.      
 deltox              0.         0.         0.         0.      
 sa                  0.         0.         0.         0.      
 sb                  0.         0.         0.         0.      
 sd                  0.         0.         0.         0.      
 saeff               0.         0.         0.         0.      
 sbeff               0.         0.         0.         0.      
  
  
                                                              
 element name        2:m2       2:m3       3:m5       3:m4    
 drain               2:bit_b    2:bit      3:bit      3:bit_b 
 gate                2:bit      2:bit_b    3:bit_b    3:bit   
 source              0:vdd!     0:vdd!     0:0        0:0     
 bulk                0:vdd!     0:vdd!     0:0        0:0     
 model               0:pmos     0:pmos     0:nmos     0:nmos  
 w eff              78.0000n   78.0000n   30.9880u   30.9880u 
 l eff              29.0000n   29.0000n   29.0000n   29.0000n 
 rd eff              0.         0.         0.         0.      
 rs eff              0.         0.         0.         0.      
 cdsat               7.8700a    7.8700a    2.9181f    2.9181f 
 cssat               7.8700a    7.8700a    2.9181f    2.9181f 
 capbd             133.6681a  133.6681a  178.5462a  178.5462a 
 capbs             116.1033a  116.1033a  152.1990a  152.1990a 
 temp               25.0000    25.0000    25.0000    25.0000  
 aic                                                          
 nf                  1.0000     1.0000     1.0000     1.0000  
 min                 0.         0.         0.         0.      
 rbdb               15.0000    15.0000    15.0000    15.0000  
 rbsb               15.0000    15.0000    15.0000    15.0000  
 rbpb                5.0000     5.0000     5.0000     5.0000  
 rbps               15.0000    15.0000    15.0000    15.0000  
 rbpd               15.0000    15.0000    15.0000    15.0000  
 trnqsmod            0.         0.         0.         0.      
 acnqsmod            0.         0.         0.         0.      
 rbodymod            1.0000     1.0000     1.0000     1.0000  
 rgatemod            1.0000     1.0000     1.0000     1.0000  
 geomod              0.         0.         0.         0.      
 rgeomod             0.         0.         0.         0.      
 delvto              0.         0.         0.         0.      
 mulu0               1.0000     1.0000     1.0000     1.0000  
 delk1               0.         0.         0.         0.      
 delnfct             0.         0.         0.         0.      
 deltox              0.         0.         0.         0.      
 sa                  0.         0.         0.         0.      
 sb                  0.         0.         0.         0.      
 sd                  0.         0.         0.         0.      
 saeff               0.         0.         0.         0.      
 sbeff               0.         0.         0.         0.      
  
  
                                                              
 element name        3:m1       3:m0       3:m2       3:m3    
 drain               0:net56    0:net57    3:bit_b    3:bit   
 gate                0:wl255    0:wl255    3:bit      3:bit_b 
 source              3:bit_b    3:bit      0:vdd!     0:vdd!  
 bulk                0:0        0:0        0:vdd!     0:vdd!  
 model               0:nmos     0:nmos     0:pmos     0:pmos  
 w eff              19.8120u   19.8120u   19.8120u   19.8120u 
 l eff              29.0000n   29.0000n   29.0000n   29.0000n 
 rd eff              0.         0.         0.         0.      
 rs eff              0.         0.         0.         0.      
 cdsat               1.9990f    1.9990f    1.9990f    1.9990f 
 cssat               1.9990f    1.9990f    1.9990f    1.9990f 
 capbd             133.6681a  133.6681a  133.6681a  133.6681a 
 capbs             116.1033a  116.1033a  116.1033a  116.1033a 
 temp               25.0000    25.0000    25.0000    25.0000  
 aic                                                          
 nf                  1.0000     1.0000     1.0000     1.0000  
 min                 0.         0.         0.         0.      
 rbdb               15.0000    15.0000    15.0000    15.0000  
 rbsb               15.0000    15.0000    15.0000    15.0000  
 rbpb                5.0000     5.0000     5.0000     5.0000  
 rbps               15.0000    15.0000    15.0000    15.0000  
 rbpd               15.0000    15.0000    15.0000    15.0000  
 trnqsmod            0.         0.         0.         0.      
 acnqsmod            0.         0.         0.         0.      
 rbodymod            1.0000     1.0000     1.0000     1.0000  
 rgatemod            1.0000     1.0000     1.0000     1.0000  
 geomod              0.         0.         0.         0.      
 rgeomod             0.         0.         0.         0.      
 delvto              0.         0.         0.         0.      
 mulu0               1.0000     1.0000     1.0000     1.0000  
 delk1               0.         0.         0.         0.      
 delnfct             0.         0.         0.         0.      
 deltox              0.         0.         0.         0.      
 sa                  0.         0.         0.         0.      
 sb                  0.         0.         0.         0.      
 sd                  0.         0.         0.         0.      
 saeff               0.         0.         0.         0.      
 sbeff               0.         0.         0.         0.      
  
  
                                                               
 element name        4:m5       4:m4       4:m1        4:m0    
 drain               4:bit      4:bit_b    0:bl_b63    0:bl63  
 gate                4:bit_b    4:bit      0:0         0:0     
 source              0:0        0:0        4:bit_b     4:bit   
 bulk                0:0        0:0        0:0         0:0     
 model               0:nmos     0:nmos     0:nmos      0:nmos  
 w eff              30.9880u   30.9880u   19.8120u    19.8120u 
 l eff              29.0000n   29.0000n   29.0000n    29.0000n 
 rd eff              0.         0.         0.          0.      
 rs eff              0.         0.         0.          0.      
 cdsat               2.9181f    2.9181f    1.9990f     1.9990f 
 cssat               2.9181f    2.9181f    1.9990f     1.9990f 
 capbd             178.5462a  178.5462a  133.6681a   133.6681a 
 capbs             152.1990a  152.1990a  116.1033a   116.1033a 
 temp               25.0000    25.0000    25.0000     25.0000  
 aic                                                           
 nf                  1.0000     1.0000     1.0000      1.0000  
 min                 0.         0.         0.          0.      
 rbdb               15.0000    15.0000    15.0000     15.0000  
 rbsb               15.0000    15.0000    15.0000     15.0000  
 rbpb                5.0000     5.0000     5.0000      5.0000  
 rbps               15.0000    15.0000    15.0000     15.0000  
 rbpd               15.0000    15.0000    15.0000     15.0000  
 trnqsmod            0.         0.         0.          0.      
 acnqsmod            0.         0.         0.          0.      
 rbodymod            1.0000     1.0000     1.0000      1.0000  
 rgatemod            1.0000     1.0000     1.0000      1.0000  
 geomod              0.         0.         0.          0.      
 rgeomod             0.         0.         0.          0.      
 delvto              0.         0.         0.          0.      
 mulu0               1.0000     1.0000     1.0000      1.0000  
 delk1               0.         0.         0.          0.      
 delnfct             0.         0.         0.          0.      
 deltox              0.         0.         0.          0.      
 sa                  0.         0.         0.          0.      
 sb                  0.         0.         0.          0.      
 sd                  0.         0.         0.          0.      
 saeff               0.         0.         0.          0.      
 sbeff               0.         0.         0.          0.      
  
  
                                                              
 element name        4:m2       4:m3       5:m5       5:m4    
 drain               4:bit_b    4:bit      5:bit      5:bit_b 
 gate                4:bit      4:bit_b    5:bit_b    5:bit   
 source              0:vdd!     0:vdd!     0:0        0:0     
 bulk                0:vdd!     0:vdd!     0:0        0:0     
 model               0:pmos     0:pmos     0:nmos     0:nmos  
 w eff              19.8120u   19.8120u    7.8710m    7.8710m 
 l eff              29.0000n   29.0000n   29.0000n   29.0000n 
 rd eff              0.         0.         0.         0.      
 rs eff              0.         0.         0.         0.      
 cdsat               1.9990f    1.9990f  741.2026f  741.2026f 
 cssat               1.9990f    1.9990f  741.2026f  741.2026f 
 capbd             133.6681a  133.6681a  178.5462a  178.5462a 
 capbs             116.1033a  116.1033a  152.1990a  152.1990a 
 temp               25.0000    25.0000    25.0000    25.0000  
 aic                                                          
 nf                  1.0000     1.0000     1.0000     1.0000  
 min                 0.         0.         0.         0.      
 rbdb               15.0000    15.0000    15.0000    15.0000  
 rbsb               15.0000    15.0000    15.0000    15.0000  
 rbpb                5.0000     5.0000     5.0000     5.0000  
 rbps               15.0000    15.0000    15.0000    15.0000  
 rbpd               15.0000    15.0000    15.0000    15.0000  
 trnqsmod            0.         0.         0.         0.      
 acnqsmod            0.         0.         0.         0.      
 rbodymod            1.0000     1.0000     1.0000     1.0000  
 rgatemod            1.0000     1.0000     1.0000     1.0000  
 geomod              0.         0.         0.         0.      
 rgeomod             0.         0.         0.         0.      
 delvto              0.         0.         0.         0.      
 mulu0               1.0000     1.0000     1.0000     1.0000  
 delk1               0.         0.         0.         0.      
 delnfct             0.         0.         0.         0.      
 deltox              0.         0.         0.         0.      
 sa                  0.         0.         0.         0.      
 sb                  0.         0.         0.         0.      
 sd                  0.         0.         0.         0.      
 saeff               0.         0.         0.         0.      
 sbeff               0.         0.         0.         0.      
  
  
                                                              
 element name        5:m1       5:m0       5:m2       5:m3    
 drain               0:net56    0:net57    5:bit_b    5:bit   
 gate                0:0        0:0        5:bit      5:bit_b 
 source              5:bit_b    5:bit      0:vdd!     0:vdd!  
 bulk                0:0        0:0        0:vdd!     0:vdd!  
 model               0:nmos     0:nmos     0:pmos     0:pmos  
 w eff               5.0322m    5.0322m    5.0322m    5.0322m 
 l eff              29.0000n   29.0000n   29.0000n   29.0000n 
 rd eff              0.         0.         0.         0.      
 rs eff              0.         0.         0.         0.      
 cdsat             507.7401f  507.7401f  507.7401f  507.7401f 
 cssat             507.7401f  507.7401f  507.7401f  507.7401f 
 capbd             133.6681a  133.6681a  133.6681a  133.6681a 
 capbs             116.1033a  116.1033a  116.1033a  116.1033a 
 temp               25.0000    25.0000    25.0000    25.0000  
 aic                                                          
 nf                  1.0000     1.0000     1.0000     1.0000  
 min                 0.         0.         0.         0.      
 rbdb               15.0000    15.0000    15.0000    15.0000  
 rbsb               15.0000    15.0000    15.0000    15.0000  
 rbpb                5.0000     5.0000     5.0000     5.0000  
 rbps               15.0000    15.0000    15.0000    15.0000  
 rbpd               15.0000    15.0000    15.0000    15.0000  
 trnqsmod            0.         0.         0.         0.      
 acnqsmod            0.         0.         0.         0.      
 rbodymod            1.0000     1.0000     1.0000     1.0000  
 rgatemod            1.0000     1.0000     1.0000     1.0000  
 geomod              0.         0.         0.         0.      
 rgeomod             0.         0.         0.         0.      
 delvto              0.         0.         0.         0.      
 mulu0               1.0000     1.0000     1.0000     1.0000  
 delk1               0.         0.         0.         0.      
 delnfct             0.         0.         0.         0.      
 deltox              0.         0.         0.         0.      
 sa                  0.         0.         0.         0.      
 sb                  0.         0.         0.         0.      
 sd                  0.         0.         0.         0.      
 saeff               0.         0.         0.         0.      
 sbeff               0.         0.         0.         0.      
  
  
                                                              
 element name        6:m5       6:m4       6:m1       6:m0    
 drain               6:bit      6:bit_b    0:bl_b0    0:bl0   
 gate                6:bit_b    6:bit      0:0        0:0     
 source              0:0        0:0        6:bit_b    6:bit   
 bulk                0:0        0:0        0:0        0:0     
 model               0:nmos     0:nmos     0:nmos     0:nmos  
 w eff              30.9880u   30.9880u   19.8120u   19.8120u 
 l eff              29.0000n   29.0000n   29.0000n   29.0000n 
 rd eff              0.         0.         0.         0.      
 rs eff              0.         0.         0.         0.      
 cdsat               2.9181f    2.9181f    1.9990f    1.9990f 
 cssat               2.9181f    2.9181f    1.9990f    1.9990f 
 capbd             178.5462a  178.5462a  133.6681a  133.6681a 
 capbs             152.1990a  152.1990a  116.1033a  116.1033a 
 temp               25.0000    25.0000    25.0000    25.0000  
 aic                                                          
 nf                  1.0000     1.0000     1.0000     1.0000  
 min                 0.         0.         0.         0.      
 rbdb               15.0000    15.0000    15.0000    15.0000  
 rbsb               15.0000    15.0000    15.0000    15.0000  
 rbpb                5.0000     5.0000     5.0000     5.0000  
 rbps               15.0000    15.0000    15.0000    15.0000  
 rbpd               15.0000    15.0000    15.0000    15.0000  
 trnqsmod            0.         0.         0.         0.      
 acnqsmod            0.         0.         0.         0.      
 rbodymod            1.0000     1.0000     1.0000     1.0000  
 rgatemod            1.0000     1.0000     1.0000     1.0000  
 geomod              0.         0.         0.         0.      
 rgeomod             0.         0.         0.         0.      
 delvto              0.         0.         0.         0.      
 mulu0               1.0000     1.0000     1.0000     1.0000  
 delk1               0.         0.         0.         0.      
 delnfct             0.         0.         0.         0.      
 deltox              0.         0.         0.         0.      
 sa                  0.         0.         0.         0.      
 sb                  0.         0.         0.         0.      
 sd                  0.         0.         0.         0.      
 saeff               0.         0.         0.         0.      
 sbeff               0.         0.         0.         0.      
  
  
                                                              
 element name        6:m2       6:m3       7:m5       7:m4    
 drain               6:bit_b    6:bit      7:bit      7:bit_b 
 gate                6:bit      6:bit_b    7:bit_b    7:bit   
 source              0:vdd!     0:vdd!     0:0        0:0     
 bulk                0:vdd!     0:vdd!     0:0        0:0     
 model               0:pmos     0:pmos     0:nmos     0:nmos  
 w eff              19.8120u   19.8120u  122.0000n  122.0000n 
 l eff              29.0000n   29.0000n   29.0000n   29.0000n 
 rd eff              0.         0.         0.         0.      
 rs eff              0.         0.         0.         0.      
 cdsat               1.9990f    1.9990f   11.4887a   11.4887a 
 cssat               1.9990f    1.9990f   11.4887a   11.4887a 
 capbd             133.6681a  133.6681a  178.5462a  178.5462a 
 capbs             116.1033a  116.1033a  152.1990a  152.1990a 
 temp               25.0000    25.0000    25.0000    25.0000  
 aic                                                          
 nf                  1.0000     1.0000     1.0000     1.0000  
 min                 0.         0.         0.         0.      
 rbdb               15.0000    15.0000    15.0000    15.0000  
 rbsb               15.0000    15.0000    15.0000    15.0000  
 rbpb                5.0000     5.0000     5.0000     5.0000  
 rbps               15.0000    15.0000    15.0000    15.0000  
 rbpd               15.0000    15.0000    15.0000    15.0000  
 trnqsmod            0.         0.         0.         0.      
 acnqsmod            0.         0.         0.         0.      
 rbodymod            1.0000     1.0000     1.0000     1.0000  
 rgatemod            1.0000     1.0000     1.0000     1.0000  
 geomod              0.         0.         0.         0.      
 rgeomod             0.         0.         0.         0.      
 delvto              0.         0.         0.         0.      
 mulu0               1.0000     1.0000     1.0000     1.0000  
 delk1               0.         0.         0.         0.      
 delnfct             0.         0.         0.         0.      
 deltox              0.         0.         0.         0.      
 sa                  0.         0.         0.         0.      
 sb                  0.         0.         0.         0.      
 sd                  0.         0.         0.         0.      
 saeff               0.         0.         0.         0.      
 sbeff               0.         0.         0.         0.      
  
  
                                                               
 element name        7:m1        7:m0       7:m2       7:m3    
 drain               0:bl_b63    0:bl63     7:bit_b    7:bit   
 gate                0:wl0       0:wl0      7:bit      7:bit_b 
 source              7:bit_b     7:bit      0:vdd!     0:vdd!  
 bulk                0:0         0:0        0:vdd!     0:vdd!  
 model               0:nmos      0:nmos     0:pmos     0:pmos  
 w eff              78.0000n    78.0000n   78.0000n   78.0000n 
 l eff              29.0000n    29.0000n   29.0000n   29.0000n 
 rd eff              0.          0.         0.         0.      
 rs eff              0.          0.         0.         0.      
 cdsat               7.8700a     7.8700a    7.8700a    7.8700a 
 cssat               7.8700a     7.8700a    7.8700a    7.8700a 
 capbd             133.6681a   133.6681a  133.6681a  133.6681a 
 capbs             116.1033a   116.1033a  116.1033a  116.1033a 
 temp               25.0000     25.0000    25.0000    25.0000  
 aic                                                           
 nf                  1.0000      1.0000     1.0000     1.0000  
 min                 0.          0.         0.         0.      
 rbdb               15.0000     15.0000    15.0000    15.0000  
 rbsb               15.0000     15.0000    15.0000    15.0000  
 rbpb                5.0000      5.0000     5.0000     5.0000  
 rbps               15.0000     15.0000    15.0000    15.0000  
 rbpd               15.0000     15.0000    15.0000    15.0000  
 trnqsmod            0.          0.         0.         0.      
 acnqsmod            0.          0.         0.         0.      
 rbodymod            1.0000      1.0000     1.0000     1.0000  
 rgatemod            1.0000      1.0000     1.0000     1.0000  
 geomod              0.          0.         0.         0.      
 rgeomod             0.          0.         0.         0.      
 delvto              0.          0.         0.         0.      
 mulu0               1.0000      1.0000     1.0000     1.0000  
 delk1               0.          0.         0.         0.      
 delnfct             0.          0.         0.         0.      
 deltox              0.          0.         0.         0.      
 sa                  0.          0.         0.         0.      
 sb                  0.          0.         0.         0.      
 sd                  0.          0.         0.         0.      
 saeff               0.          0.         0.         0.      
 sbeff               0.          0.         0.         0.      
  
  
                                                              
 element name        8:m5       8:m4       8:m1       8:m0    
 drain               8:bit      8:bit_b    0:net56    0:net57 
 gate                8:bit_b    8:bit      0:wl0      0:wl0   
 source              0:0        0:0        8:bit_b    8:bit   
 bulk                0:0        0:0        0:0        0:0     
 model               0:nmos     0:nmos     0:nmos     0:nmos  
 w eff              30.9880u   30.9880u   19.8120u   19.8120u 
 l eff              29.0000n   29.0000n   29.0000n   29.0000n 
 rd eff              0.         0.         0.         0.      
 rs eff              0.         0.         0.         0.      
 cdsat               2.9181f    2.9181f    1.9990f    1.9990f 
 cssat               2.9181f    2.9181f    1.9990f    1.9990f 
 capbd             178.5462a  178.5462a  133.6681a  133.6681a 
 capbs             152.1990a  152.1990a  116.1033a  116.1033a 
 temp               25.0000    25.0000    25.0000    25.0000  
 aic                                                          
 nf                  1.0000     1.0000     1.0000     1.0000  
 min                 0.         0.         0.         0.      
 rbdb               15.0000    15.0000    15.0000    15.0000  
 rbsb               15.0000    15.0000    15.0000    15.0000  
 rbpb                5.0000     5.0000     5.0000     5.0000  
 rbps               15.0000    15.0000    15.0000    15.0000  
 rbpd               15.0000    15.0000    15.0000    15.0000  
 trnqsmod            0.         0.         0.         0.      
 acnqsmod            0.         0.         0.         0.      
 rbodymod            1.0000     1.0000     1.0000     1.0000  
 rgatemod            1.0000     1.0000     1.0000     1.0000  
 geomod              0.         0.         0.         0.      
 rgeomod             0.         0.         0.         0.      
 delvto              0.         0.         0.         0.      
 mulu0               1.0000     1.0000     1.0000     1.0000  
 delk1               0.         0.         0.         0.      
 delnfct             0.         0.         0.         0.      
 deltox              0.         0.         0.         0.      
 sa                  0.         0.         0.         0.      
 sb                  0.         0.         0.         0.      
 sd                  0.         0.         0.         0.      
 saeff               0.         0.         0.         0.      
 sbeff               0.         0.         0.         0.      
  
  
                                                               
 element name        8:m2       8:m3       9:m0        9:m4    
 drain               8:bit_b    8:bit      0:bl63      9:bit_b 
 gate                8:bit      8:bit_b    9:net039    9:net30 
 source              0:vdd!     0:vdd!     9:bit       0:0     
 bulk                0:vdd!     0:vdd!     0:0         0:0     
 model               0:pmos     0:pmos     0:nmos      0:nmos  
 w eff              19.8120u   19.8120u   78.0000n   122.0000n 
 l eff              29.0000n   29.0000n   29.0000n    29.0000n 
 rd eff              0.         0.         0.          0.      
 rs eff              0.         0.         0.          0.      
 cdsat               1.9990f    1.9990f    7.8700a    11.4887a 
 cssat               1.9990f    1.9990f    7.8700a    11.4887a 
 capbd             133.6681a  133.6681a  133.6681a   178.5462a 
 capbs             116.1033a  116.1033a  116.1033a   152.1990a 
 temp               25.0000    25.0000    25.0000     25.0000  
 aic                                                           
 nf                  1.0000     1.0000     1.0000      1.0000  
 min                 0.         0.         0.          0.      
 rbdb               15.0000    15.0000    15.0000     15.0000  
 rbsb               15.0000    15.0000    15.0000     15.0000  
 rbpb                5.0000     5.0000     5.0000      5.0000  
 rbps               15.0000    15.0000    15.0000     15.0000  
 rbpd               15.0000    15.0000    15.0000     15.0000  
 trnqsmod            0.         0.         0.          0.      
 acnqsmod            0.         0.         0.          0.      
 rbodymod            1.0000     1.0000     1.0000      1.0000  
 rgatemod            1.0000     1.0000     1.0000      1.0000  
 geomod              0.         0.         0.          0.      
 rgeomod             0.         0.         0.          0.      
 delvto              0.         0.         0.          0.      
 mulu0               1.0000     1.0000     1.0000      1.0000  
 delk1               0.         0.         0.          0.      
 delnfct             0.         0.         0.          0.      
 deltox              0.         0.         0.          0.      
 sa                  0.         0.         0.          0.      
 sb                  0.         0.         0.          0.      
 sd                  0.         0.         0.          0.      
 saeff               0.         0.         0.          0.      
 sbeff               0.         0.         0.          0.      
  
  
                                                                 
 element name        9:m5        9:m1        9:m2       9:m3     
 drain               9:bit       0:bl_b63    9:bit_b    9:bit    
 gate                9:net029    0:wl255     9:net30    9:net029 
 source              0:0         9:bit_b     0:vdd!     0:vdd!   
 bulk                0:0         0:0         0:vdd!     0:vdd!   
 model               0:nmos      0:nmos      0:pmos     0:pmos   
 w eff             122.0000n    78.0000n    78.0000n   78.0000n  
 l eff              29.0000n    29.0000n    29.0000n   29.0000n  
 rd eff              0.          0.          0.         0.       
 rs eff              0.          0.          0.         0.       
 cdsat              11.4887a     7.8700a     7.8700a    7.8700a  
 cssat              11.4887a     7.8700a     7.8700a    7.8700a  
 capbd             178.5462a   133.6681a   133.6681a  133.6681a  
 capbs             152.1990a   116.1033a   116.1033a  116.1033a  
 temp               25.0000     25.0000     25.0000    25.0000   
 aic                                                             
 nf                  1.0000      1.0000      1.0000     1.0000   
 min                 0.          0.          0.         0.       
 rbdb               15.0000     15.0000     15.0000    15.0000   
 rbsb               15.0000     15.0000     15.0000    15.0000   
 rbpb                5.0000      5.0000      5.0000     5.0000   
 rbps               15.0000     15.0000     15.0000    15.0000   
 rbpd               15.0000     15.0000     15.0000    15.0000   
 trnqsmod            0.          0.          0.         0.       
 acnqsmod            0.          0.          0.         0.       
 rbodymod            1.0000      1.0000      1.0000     1.0000   
 rgatemod            1.0000      1.0000      1.0000     1.0000   
 geomod              0.          0.          0.         0.       
 rgeomod             0.          0.          0.         0.       
 delvto              0.          0.          0.         0.       
 mulu0               1.0000      1.0000      1.0000     1.0000   
 delk1               0.          0.          0.         0.       
 delnfct             0.          0.          0.         0.       
 deltox              0.          0.          0.         0.       
 sa                  0.          0.          0.         0.       
 sb                  0.          0.          0.         0.       
 sd                  0.          0.          0.         0.       
 saeff               0.          0.          0.         0.       
 sbeff               0.          0.          0.         0.       
  
  
                                                                 
 element name       10:m5       10:m1       10:m0       10:m4    
 drain               0:bl0       0:bl0       0:bl_b0    10:net23 
 gate                0:blpc_b    0:blpc_b    0:blpc_b    0:wren  
 source              0:vdd!      0:bl_b0     0:vdd!      0:bl_b0 
 bulk                0:vdd!      0:vdd!      0:vdd!      0:0     
 model               0:pmos      0:pmos      0:pmos      0:nmos  
 w eff               1.7500u     1.7500u     1.7500u     1.9700u 
 l eff              29.0000n    29.0000n    29.0000n    29.0000n 
 rd eff              0.          0.          0.          0.      
 rs eff              0.          0.          0.          0.      
 cdsat             145.3797a   145.3797a   145.3797a   163.4731a 
 cssat             145.3797a   145.3797a   145.3797a   163.4731a 
 capbd               1.8390f     1.8390f     1.8390f     2.0634f 
 capbs               1.4877f     1.4877f     1.4877f     1.6682f 
 temp               25.0000     25.0000     25.0000     25.0000  
 aic                                                             
 nf                  1.0000      1.0000      1.0000      1.0000  
 min                 0.          0.          0.          0.      
 rbdb               15.0000     15.0000     15.0000     15.0000  
 rbsb               15.0000     15.0000     15.0000     15.0000  
 rbpb                5.0000      5.0000      5.0000      5.0000  
 rbps               15.0000     15.0000     15.0000     15.0000  
 rbpd               15.0000     15.0000     15.0000     15.0000  
 trnqsmod            0.          0.          0.          0.      
 acnqsmod            0.          0.          0.          0.      
 rbodymod            1.0000      1.0000      1.0000      1.0000  
 rgatemod            1.0000      1.0000      1.0000      1.0000  
 geomod              0.          0.          0.          0.      
 rgeomod             0.          0.          0.          0.      
 delvto              0.          0.          0.          0.      
 mulu0               1.0000      1.0000      1.0000      1.0000  
 delk1               0.          0.          0.          0.      
 delnfct             0.          0.          0.          0.      
 deltox              0.          0.          0.          0.      
 sa                  0.          0.          0.          0.      
 sb                  0.          0.          0.          0.      
 sd                  0.          0.          0.          0.      
 saeff               0.          0.          0.          0.      
 sbeff               0.          0.          0.          0.      
  
  
                                                                 
 element name       10:m3      11:m5       11:m1       11:m0     
 drain              10:net26    0:net57     0:net57     0:net56  
 gate                0:wren     0:blpc_b    0:blpc_b    0:blpc_b 
 source              0:bl0      0:vdd!      0:net56     0:vdd!   
 bulk                0:0        0:vdd!      0:vdd!      0:vdd!   
 model               0:nmos     0:pmos      0:pmos      0:pmos   
 w eff               1.9700u  444.5000u   444.5000u   444.5000u  
 l eff              29.0000n   29.0000n    29.0000n    29.0000n  
 rd eff              0.         0.          0.          0.       
 rs eff              0.         0.          0.          0.       
 cdsat             163.4731a   36.9264f    36.9264f    36.9264f  
 cssat             163.4731a   36.9264f    36.9264f    36.9264f  
 capbd               2.0634f    1.8390f     1.8390f     1.8390f  
 capbs               1.6682f    1.4877f     1.4877f     1.4877f  
 temp               25.0000    25.0000     25.0000     25.0000   
 aic                                                             
 nf                  1.0000     1.0000      1.0000      1.0000   
 min                 0.         0.          0.          0.       
 rbdb               15.0000    15.0000     15.0000     15.0000   
 rbsb               15.0000    15.0000     15.0000     15.0000   
 rbpb                5.0000     5.0000      5.0000      5.0000   
 rbps               15.0000    15.0000     15.0000     15.0000   
 rbpd               15.0000    15.0000     15.0000     15.0000   
 trnqsmod            0.         0.          0.          0.       
 acnqsmod            0.         0.          0.          0.       
 rbodymod            1.0000     1.0000      1.0000      1.0000   
 rgatemod            1.0000     1.0000      1.0000      1.0000   
 geomod              0.         0.          0.          0.       
 rgeomod             0.         0.          0.          0.       
 delvto              0.         0.          0.          0.       
 mulu0               1.0000     1.0000      1.0000      1.0000   
 delk1               0.         0.          0.          0.       
 delnfct             0.         0.          0.          0.       
 deltox              0.         0.          0.          0.       
 sa                  0.         0.          0.          0.       
 sb                  0.         0.          0.          0.       
 sd                  0.         0.          0.          0.       
 saeff               0.         0.          0.          0.       
 sbeff               0.         0.          0.          0.       
  
  
                                                                
 element name       11:m4      11:m3      12:m5       12:m1     
 drain              11:net23   11:net26    0:bl63      0:bl63   
 gate                0:wren     0:wren     0:blpc_b    0:blpc_b 
 source              0:net56    0:net57    0:vdd!      0:bl_b63 
 bulk                0:0        0:0        0:vdd!      0:vdd!   
 model               0:nmos     0:nmos     0:pmos      0:pmos   
 w eff             500.3800u  500.3800u    1.7500u     1.7500u  
 l eff              29.0000n   29.0000n   29.0000n    29.0000n  
 rd eff              0.         0.         0.          0.       
 rs eff              0.         0.         0.          0.       
 cdsat              41.5222f   41.5222f  145.3797a   145.3797a  
 cssat              41.5222f   41.5222f  145.3797a   145.3797a  
 capbd               2.0634f    2.0634f    1.8390f     1.8390f  
 capbs               1.6682f    1.6682f    1.4877f     1.4877f  
 temp               25.0000    25.0000    25.0000     25.0000   
 aic                                                            
 nf                  1.0000     1.0000     1.0000      1.0000   
 min                 0.         0.         0.          0.       
 rbdb               15.0000    15.0000    15.0000     15.0000   
 rbsb               15.0000    15.0000    15.0000     15.0000   
 rbpb                5.0000     5.0000     5.0000      5.0000   
 rbps               15.0000    15.0000    15.0000     15.0000   
 rbpd               15.0000    15.0000    15.0000     15.0000   
 trnqsmod            0.         0.         0.          0.       
 acnqsmod            0.         0.         0.          0.       
 rbodymod            1.0000     1.0000     1.0000      1.0000   
 rgatemod            1.0000     1.0000     1.0000      1.0000   
 geomod              0.         0.         0.          0.       
 rgeomod             0.         0.         0.          0.       
 delvto              0.         0.         0.          0.       
 mulu0               1.0000     1.0000     1.0000      1.0000   
 delk1               0.         0.         0.          0.       
 delnfct             0.         0.         0.          0.       
 deltox              0.         0.         0.          0.       
 sa                  0.         0.         0.          0.       
 sb                  0.         0.         0.          0.       
 sd                  0.         0.         0.          0.       
 saeff               0.         0.         0.          0.       
 sbeff               0.         0.         0.          0.       
  
  
                                                                
 element name       12:m0       12:m4       12:m3      13:m0    
 drain               0:bl_b63   12:net23    12:net26    0:bl0   
 gate                0:blpc_b    0:wren      0:wren     0:wl0   
 source              0:vdd!      0:bl_b63    0:bl63    13:bit   
 bulk                0:vdd!      0:0         0:0        0:0     
 model               0:pmos      0:nmos      0:nmos     0:nmos  
 w eff               1.7500u     1.9700u     1.9700u   78.0000n 
 l eff              29.0000n    29.0000n    29.0000n   29.0000n 
 rd eff              0.          0.          0.         0.      
 rs eff              0.          0.          0.         0.      
 cdsat             145.3797a   163.4731a   163.4731a    7.8700a 
 cssat             145.3797a   163.4731a   163.4731a    7.8700a 
 capbd               1.8390f     2.0634f     2.0634f  133.6681a 
 capbs               1.4877f     1.6682f     1.6682f  116.1033a 
 temp               25.0000     25.0000     25.0000    25.0000  
 aic                                                            
 nf                  1.0000      1.0000      1.0000     1.0000  
 min                 0.          0.          0.         0.      
 rbdb               15.0000     15.0000     15.0000    15.0000  
 rbsb               15.0000     15.0000     15.0000    15.0000  
 rbpb                5.0000      5.0000      5.0000     5.0000  
 rbps               15.0000     15.0000     15.0000    15.0000  
 rbpd               15.0000     15.0000     15.0000    15.0000  
 trnqsmod            0.          0.          0.         0.      
 acnqsmod            0.          0.          0.         0.      
 rbodymod            1.0000      1.0000      1.0000     1.0000  
 rgatemod            1.0000      1.0000      1.0000     1.0000  
 geomod              0.          0.          0.         0.      
 rgeomod             0.          0.          0.         0.      
 delvto              0.          0.          0.         0.      
 mulu0               1.0000      1.0000      1.0000     1.0000  
 delk1               0.          0.          0.         0.      
 delnfct             0.          0.          0.         0.      
 deltox              0.          0.          0.         0.      
 sa                  0.          0.          0.         0.      
 sb                  0.          0.          0.         0.      
 sd                  0.          0.          0.         0.      
 saeff               0.          0.          0.         0.      
 sbeff               0.          0.          0.         0.      
  
  
                                                                
 element name       13:m4      13:m5       13:m1       13:m2    
 drain              13:bit_b   13:bit       0:bl_b0    13:bit_b 
 gate               13:net30   13:net029   13:net056   13:net30 
 source              0:0        0:0        13:bit_b     0:vdd!  
 bulk                0:0        0:0         0:0         0:vdd!  
 model               0:nmos     0:nmos      0:nmos      0:pmos  
 w eff             122.0000n  122.0000n    78.0000n    78.0000n 
 l eff              29.0000n   29.0000n    29.0000n    29.0000n 
 rd eff              0.         0.          0.          0.      
 rs eff              0.         0.          0.          0.      
 cdsat              11.4887a   11.4887a     7.8700a     7.8700a 
 cssat              11.4887a   11.4887a     7.8700a     7.8700a 
 capbd             178.5462a  178.5462a   133.6681a   133.6681a 
 capbs             152.1990a  152.1990a   116.1033a   116.1033a 
 temp               25.0000    25.0000     25.0000     25.0000  
 aic                                                            
 nf                  1.0000     1.0000      1.0000      1.0000  
 min                 0.         0.          0.          0.      
 rbdb               15.0000    15.0000     15.0000     15.0000  
 rbsb               15.0000    15.0000     15.0000     15.0000  
 rbpb                5.0000     5.0000      5.0000      5.0000  
 rbps               15.0000    15.0000     15.0000     15.0000  
 rbpd               15.0000    15.0000     15.0000     15.0000  
 trnqsmod            0.         0.          0.          0.      
 acnqsmod            0.         0.          0.          0.      
 rbodymod            1.0000     1.0000      1.0000      1.0000  
 rgatemod            1.0000     1.0000      1.0000      1.0000  
 geomod              0.         0.          0.          0.      
 rgeomod             0.         0.          0.          0.      
 delvto              0.         0.          0.          0.      
 mulu0               1.0000     1.0000      1.0000      1.0000  
 delk1               0.         0.          0.          0.      
 delnfct             0.         0.          0.          0.      
 deltox              0.         0.          0.          0.      
 sa                  0.         0.          0.          0.      
 sb                  0.         0.          0.          0.      
 sd                  0.         0.          0.          0.      
 saeff               0.         0.          0.          0.      
 sbeff               0.         0.          0.          0.      
  
  
                                                               
 element name       13:m3       20:m1      20:m2      21:m1    
 drain              13:bit      10:net18   10:net18   10:net23 
 gate               13:net029    0:vdd!     0:vdd!     0:vdd!  
 source              0:vdd!      0:vdd!     0:0        0:vdd!  
 bulk                0:vdd!      0:vdd!     0:0        0:vdd!  
 model               0:pmos      0:pmos     0:nmos     0:pmos  
 w eff              78.0000n   166.0000n   78.0000n  254.0000n 
 l eff              29.0000n    29.0000n   29.0000n   29.0000n 
 rd eff              0.          0.         0.         0.      
 rs eff              0.          0.         0.         0.      
 cdsat               7.8700a    15.1073a    7.8700a   22.3447a 
 cssat               7.8700a    15.1073a    7.8700a   22.3447a 
 capbd             133.6681a   223.4243a  133.6681a  313.1804a 
 capbs             116.1033a   188.2947a  116.1033a  260.4860a 
 temp               25.0000     25.0000    25.0000    25.0000  
 aic                                                           
 nf                  1.0000      1.0000     1.0000     1.0000  
 min                 0.          0.         0.         0.      
 rbdb               15.0000     15.0000    15.0000    15.0000  
 rbsb               15.0000     15.0000    15.0000    15.0000  
 rbpb                5.0000      5.0000     5.0000     5.0000  
 rbps               15.0000     15.0000    15.0000    15.0000  
 rbpd               15.0000     15.0000    15.0000    15.0000  
 trnqsmod            0.          0.         0.         0.      
 acnqsmod            0.          0.         0.         0.      
 rbodymod            1.0000      1.0000     1.0000     1.0000  
 rgatemod            1.0000      1.0000     1.0000     1.0000  
 geomod              0.          0.         0.         0.      
 rgeomod             0.          0.         0.         0.      
 delvto              0.          0.         0.         0.      
 mulu0               1.0000      1.0000     1.0000     1.0000  
 delk1               0.          0.         0.         0.      
 delnfct             0.          0.         0.         0.      
 deltox              0.          0.         0.         0.      
 sa                  0.          0.         0.         0.      
 sb                  0.          0.         0.         0.      
 sd                  0.          0.         0.         0.      
 saeff               0.          0.         0.         0.      
 sbeff               0.          0.         0.         0.      
  
  
                                                              
 element name       21:m2      22:m1      22:m2      23:m1    
 drain              10:net23   10:net26   10:net26   11:net18 
 gate                0:vdd!    10:net18   10:net18    0:vdd!  
 source              0:0        0:vdd!     0:0        0:vdd!  
 bulk                0:0        0:vdd!     0:0        0:vdd!  
 model               0:nmos     0:pmos     0:nmos     0:pmos  
 w eff             518.0000n  254.0000n  518.0000n   42.1640u 
 l eff              29.0000n   29.0000n   29.0000n   29.0000n 
 rd eff              0.         0.         0.         0.      
 rs eff              0.         0.         0.         0.      
 cdsat              44.0567a   22.3447a   44.0567a    3.8373f 
 cssat              44.0567a   22.3447a   44.0567a    3.8373f 
 capbd             582.4488a  313.1804a  582.4488a  223.4243a 
 capbs             477.0600a  260.4860a  477.0600a  188.2947a 
 temp               25.0000    25.0000    25.0000    25.0000  
 aic                                                          
 nf                  1.0000     1.0000     1.0000     1.0000  
 min                 0.         0.         0.         0.      
 rbdb               15.0000    15.0000    15.0000    15.0000  
 rbsb               15.0000    15.0000    15.0000    15.0000  
 rbpb                5.0000     5.0000     5.0000     5.0000  
 rbps               15.0000    15.0000    15.0000    15.0000  
 rbpd               15.0000    15.0000    15.0000    15.0000  
 trnqsmod            0.         0.         0.         0.      
 acnqsmod            0.         0.         0.         0.      
 rbodymod            1.0000     1.0000     1.0000     1.0000  
 rgatemod            1.0000     1.0000     1.0000     1.0000  
 geomod              0.         0.         0.         0.      
 rgeomod             0.         0.         0.         0.      
 delvto              0.         0.         0.         0.      
 mulu0               1.0000     1.0000     1.0000     1.0000  
 delk1               0.         0.         0.         0.      
 delnfct             0.         0.         0.         0.      
 deltox              0.         0.         0.         0.      
 sa                  0.         0.         0.         0.      
 sb                  0.         0.         0.         0.      
 sd                  0.         0.         0.         0.      
 saeff               0.         0.         0.         0.      
 sbeff               0.         0.         0.         0.      
  
  
                                                              
 element name       23:m2      24:m1      24:m2      25:m1    
 drain              11:net18   11:net23   11:net23   11:net26 
 gate                0:vdd!     0:vdd!     0:vdd!    11:net18 
 source              0:0        0:vdd!     0:0        0:vdd!  
 bulk                0:0        0:vdd!     0:0        0:vdd!  
 model               0:nmos     0:pmos     0:nmos     0:pmos  
 w eff              19.8120u   64.5160u  131.5720u   64.5160u 
 l eff              29.0000n   29.0000n   29.0000n   29.0000n 
 rd eff              0.         0.         0.         0.      
 rs eff              0.         0.         0.         0.      
 cdsat               1.9990f    5.6756f   11.1904f    5.6756f 
 cssat               1.9990f    5.6756f   11.1904f    5.6756f 
 capbd             133.6681a  313.1804a  582.4488a  313.1804a 
 capbs             116.1033a  260.4860a  477.0600a  260.4860a 
 temp               25.0000    25.0000    25.0000    25.0000  
 aic                                                          
 nf                  1.0000     1.0000     1.0000     1.0000  
 min                 0.         0.         0.         0.      
 rbdb               15.0000    15.0000    15.0000    15.0000  
 rbsb               15.0000    15.0000    15.0000    15.0000  
 rbpb                5.0000     5.0000     5.0000     5.0000  
 rbps               15.0000    15.0000    15.0000    15.0000  
 rbpd               15.0000    15.0000    15.0000    15.0000  
 trnqsmod            0.         0.         0.         0.      
 acnqsmod            0.         0.         0.         0.      
 rbodymod            1.0000     1.0000     1.0000     1.0000  
 rgatemod            1.0000     1.0000     1.0000     1.0000  
 geomod              0.         0.         0.         0.      
 rgeomod             0.         0.         0.         0.      
 delvto              0.         0.         0.         0.      
 mulu0               1.0000     1.0000     1.0000     1.0000  
 delk1               0.         0.         0.         0.      
 delnfct             0.         0.         0.         0.      
 deltox              0.         0.         0.         0.      
 sa                  0.         0.         0.         0.      
 sb                  0.         0.         0.         0.      
 sd                  0.         0.         0.         0.      
 saeff               0.         0.         0.         0.      
 sbeff               0.         0.         0.         0.      
  
  
                                                                 
 element name       25:m2      26:m1       26:m2       27:m1     
 drain              11:net26   12:net18    12:net18    12:net23  
 gate               11:net18    0:wrdata    0:wrdata    0:wrdata 
 source              0:0        0:vdd!      0:0         0:vdd!   
 bulk                0:0        0:vdd!      0:0         0:vdd!   
 model               0:nmos     0:pmos      0:nmos      0:pmos   
 w eff             131.5720u  166.0000n    78.0000n   254.0000n  
 l eff              29.0000n   29.0000n    29.0000n    29.0000n  
 rd eff              0.         0.          0.          0.       
 rs eff              0.         0.          0.          0.       
 cdsat              11.1904f   15.1073a     7.8700a    22.3447a  
 cssat              11.1904f   15.1073a     7.8700a    22.3447a  
 capbd             582.4488a  223.4243a   133.6681a   313.1804a  
 capbs             477.0600a  188.2947a   116.1033a   260.4860a  
 temp               25.0000    25.0000     25.0000     25.0000   
 aic                                                             
 nf                  1.0000     1.0000      1.0000      1.0000   
 min                 0.         0.          0.          0.       
 rbdb               15.0000    15.0000     15.0000     15.0000   
 rbsb               15.0000    15.0000     15.0000     15.0000   
 rbpb                5.0000     5.0000      5.0000      5.0000   
 rbps               15.0000    15.0000     15.0000     15.0000   
 rbpd               15.0000    15.0000     15.0000     15.0000   
 trnqsmod            0.         0.          0.          0.       
 acnqsmod            0.         0.          0.          0.       
 rbodymod            1.0000     1.0000      1.0000      1.0000   
 rgatemod            1.0000     1.0000      1.0000      1.0000   
 geomod              0.         0.          0.          0.       
 rgeomod             0.         0.          0.          0.       
 delvto              0.         0.          0.          0.       
 mulu0               1.0000     1.0000      1.0000      1.0000   
 delk1               0.         0.          0.          0.       
 delnfct             0.         0.          0.          0.       
 deltox              0.         0.          0.          0.       
[...]
 element  52:m1       52:m2       53:m1       53:m2       54:m2      
 model     0:pmos      0:nmos      0:pmos      0:nmos      0:pmos    
 region        Linear      Cutoff      Linear      Cutoff      Linear
  id       -372.3290n   279.6099n  -372.3290n   279.6099n   -12.7560n
  ibs      -1.242e-23   9.993e-25  -1.242e-23   9.993e-25  -2.017e-24
  ibd       103.1936a    -1.0006p   103.1936a    -1.0006p    62.9888a
  vgs      -999.9658m    34.1677u  -999.9658m    34.1677u  -999.9601m
  vds      -101.8255u   999.8982m  -101.8255u   999.8982m   -20.9792u
  vbs         0.          0.          0.          0.          0.     
  vth      -310.7547m   302.3836m  -310.7547m   302.3836m  -310.7616m
  vdsat    -504.7894m    39.8690m  -504.7894m    39.8690m  -504.0525m
  vod      -689.2111m  -302.3495m  -689.2111m  -302.3495m  -689.1985m
  beta        6.6735m   185.6946m     6.6735m   185.6946m     1.0983m
  gam eff   394.0000m   441.0000m   394.0000m   441.0000m   394.0000m
  gm        312.3526n     7.0412u   312.3526n     7.0412u    10.8080n
  gds         3.6562m   526.2994n     3.6562m   526.2994n   608.0158u
  gmb       125.7180n     1.9977u   125.7180n     1.9977u     4.3512n
  cdtot       6.8604f     6.5424f     6.8604f     6.5424f     1.2829f
  cgtot       5.3428f     5.0229f     5.3428f     5.0229f   881.3907a
  cstot       4.3758f     7.4879f     4.3758f     7.4879f   868.1529a
  cbtot       6.1225f    11.0549f     6.1225f    11.0549f     1.3115f
  cgs         3.0063f     2.4347f     3.0063f     2.4347f   494.7293a
  cgd         2.3651f     1.5645f     2.3651f     1.5645f   389.2717a



 subckt    xi17.xi4.x  xi17.xi4.x  xi17.xi4.x  xi17.xi4.x  xi17.xi4.x
 element  54:m0       54:m3       54:m1       55:m2       55:m0      
 model     0:pmos      0:nmos      0:nmos      0:pmos      0:pmos    
 region        Linear      Cutoff      Cutoff      Linear      Linear
  id        -12.7564n    10.4360n    10.4356n   -12.7560n   -12.7564n
  ibs      -2.019e-24   1.562e-25  -166.1887f  -2.017e-24  -2.019e-24
  ibd        62.9888a  -166.1887f    -3.0001p    62.9888a    62.9888a
  vgs        -1.0000     39.8819u   -55.3422m  -999.9601m    -1.0000 
  vds       -20.9792u    55.3422m   944.6369m   -20.9792u   -20.9792u
  vbs         0.          0.        -55.3422m     0.          0.     
  vth      -310.7616m   366.8200m   319.3416m  -310.7616m  -310.7616m
  vdsat    -504.0757m    40.2563m    39.9687m  -504.0525m  -504.0757m
  vod      -689.2384m  -366.7801m  -374.6837m  -689.1985m  -689.2384m
  beta        1.0983m    43.8071m    46.4639m     1.0983m     1.0983m
  gam eff   394.0000m   441.0000m   441.0000m   394.0000m   394.0000m
  gm         10.8074n   266.8902n   269.8855n    10.8080n    10.8074n
  gds       608.0363u    61.0011n    20.1443n   608.0158u   608.0363u
  gmb         4.3511n    78.9388n    77.1634n     4.3512n     4.3511n
  cdtot       1.2829f     2.3059f     1.7894f     1.2829f     1.2829f
  cgtot     881.3933a     1.4716f     1.2494f   881.3907a   881.3933a
  cstot     868.1525a     2.0559f     1.9947f   868.1529a   868.1525a
  cbtot       1.3115f     3.4173f     3.0618f     1.3115f     1.3115f
  cgs       494.7307a   621.8347a   586.2463a   494.7293a   494.7307a
  cgd       389.2735a   586.2567a   399.6100a   389.2717a   389.2735a



 subckt    xi17.xi4.x  xi17.xi4.x  xi17.xi4.x  xi17.xi4.x  xi17.xi4.x
 element  55:m3       55:m1       56:m1       56:m2       57:m1      
 model     0:nmos      0:nmos      0:pmos      0:nmos      0:pmos    
 region        Cutoff      Cutoff      Linear      Cutoff      Linear
  id         10.4360n    10.4356n    -1.1170u   838.8279n    -1.1170u
  ibs       1.562e-25  -166.1887f  -3.725e-23   2.998e-24  -3.725e-23
  ibd      -166.1887f    -3.0001p   309.5804a    -3.0018p   309.5804a
  vgs        39.8819u   -55.3422m  -999.9659m    34.0809u  -999.9659m
  vds        55.3422m   944.6369m  -101.8253u   999.8982m  -101.8253u
  vbs         0.        -55.3422m     0.          0.          0.     
  vth       366.8200m   319.3416m  -310.7547m   302.3836m  -310.7547m
  vdsat      40.2563m    39.9687m  -504.7895m    39.8690m  -504.7895m
  vod      -366.7801m  -374.6837m  -689.2112m  -302.3495m  -689.2112m
  beta       43.8071m    46.4639m    20.0205m   557.0838m    20.0205m
  gam eff   441.0000m   441.0000m   394.0000m   441.0000m   394.0000m
  gm        266.8902n   269.8855n   937.0563n    21.1236u   937.0563n
  gds        61.0011n    20.1443n    10.9686m     1.5789u    10.9686m
  gmb        78.9388n    77.1634n   377.1534n     5.9932u   377.1534n
  cdtot       2.3059f     1.7894f    20.5811f    19.6272f    20.5811f
  cgtot       1.4716f     1.2494f    16.0284f    15.0687f    16.0284f
  cstot       2.0559f     1.9947f    13.1273f    22.4636f    13.1273f
  cbtot       3.4173f     3.0618f    18.3675f    33.1648f    18.3675f
  cgs       621.8347a   586.2463a     9.0190f     7.3041f     9.0190f
  cgd       586.2567a   399.6100a     7.0953f     4.6935f     7.0953f



 subckt    xi17.xi4.x  xi17.xi4.x  xi17.xi4.x  xi17.xi4.x  xi17.xi4.x
 element  57:m2       58:m1       58:m2       59:m1       59:m2      
 model     0:nmos      0:pmos      0:nmos      0:pmos      0:nmos    
 region        Cutoff      Cutoff      Linear      Cutoff      Linear
  id        838.8279n  -241.7180n   206.4658n  -241.7180n   206.4658n
  ibs       2.998e-24  -2.874e-24   8.734e-24  -2.874e-24   8.734e-24
  ibd        -3.0018p     3.0009p  -102.4648a     3.0009p  -102.4648a
  vgs        34.0809u   -20.9792u   999.9790m   -20.9792u   999.9790m
  vds       999.8982m  -999.9659m    34.0809u  -999.9659m    34.0809u
  vbs         0.          0.          0.          0.          0.     
  vth       302.3836m  -225.6999m   370.5933m  -225.6999m   370.5933m
  vdsat      39.8690m   -46.2019m   339.8012m   -46.2019m   339.8012m
  vod      -302.3495m   225.6789m   629.3857m   225.6789m   629.3857m
  beta      557.0838m    25.4279m    30.8590m    25.4279m    30.8590m
  gam eff   441.0000m   394.0000m   441.0000m   394.0000m   441.0000m
  gm         21.1236u     6.1305u    78.3736n     6.1305u    78.3736n
  gds         1.5789u   587.9263n     6.0579m   587.9263n     6.0579m
  gmb         5.9932u     1.3770u    41.2396n     1.3770u    41.2396n
  cdtot      19.6272f     9.4637f     3.3805f     9.4637f     3.3805f
  cgtot      15.0687f     7.0110f     2.4306f     7.0110f     2.4306f
  cstot      22.4636f    10.8384f     2.1571f    10.8384f     2.1571f
  cbtot      33.1648f    15.8535f     3.1844f    15.8535f     3.1844f
  cgs         7.3041f     3.4914f     1.3273f     3.4914f     1.3273f
  cgd         4.6935f     2.2388f     1.1256f     2.2388f     1.1256f



 subckt    xi17.xi4.x  xi17.xi4.x  xi17.xi4.x  xi17.xi4.x  xi17.xi4.x
 element  60:m1       60:m2       61:m1       61:m2       62:m1      
 model     0:pmos      0:nmos      0:pmos      0:nmos      0:pmos    
 region        Cutoff      Linear      Cutoff      Linear      Cutoff
  id         -1.3477u     1.3951u    -1.3477u     1.3951u    -4.0432u
  ibs      -1.312e-24   5.140e-23  -1.312e-24   5.140e-23  -3.934e-24
  ibd         1.0055p   -42.3887a     1.0055p   -42.3887a     3.0166p
  vgs      -101.8255u   999.8982m  -101.8255u   999.8982m  -101.8253u
  vds      -999.9591m    40.9192u  -999.9591m    40.9192u  -999.9589m
  vbs         0.          0.          0.          0.          0.     
  vth      -225.7004m   370.5929m  -225.7004m   370.5929m  -225.7005m
  vdsat     -46.2026m   341.1940m   -46.2026m   341.1940m   -46.2026m
  vod       225.5986m   629.3053m   225.5986m   629.3053m   225.5986m
  beta      141.4868m   175.9603m   141.4868m   175.9603m   424.4603m
  gam eff   394.0000m   441.0000m   394.0000m   441.0000m   394.0000m
  gm         34.1797u   523.3561n    34.1797u   523.3561n   102.5392u
  gds         3.2779u    34.0921m     3.2779u    34.0921m     9.8338u
  gmb         7.6767u   275.2129n     7.6767u   275.2129n    23.0301u
  cdtot      51.9818f    18.4015f    51.9818f    18.4015f   155.9454f
  cgtot      39.0009f    13.8469f    39.0009f    13.8469f   117.0026f
  cstot      59.4899f    11.4584f    59.4899f    11.4584f   178.4696f
  cbtot      86.7048f    16.4307f    86.7048f    16.4307f   260.1143f
  cgs        19.4289f     7.5681f    19.4289f     7.5681f    58.2866f
  cgd        12.4573f     6.4178f    12.4573f     6.4178f    37.3720f



 subckt    xi17.xi4.x  xi17.xi4.x  xi17.xi4.x  xclk_gen.x  xclk_gen.x
 element  62:m2       63:m1       63:m2       67:m_0      67:m_1     
 model     0:nmos      0:pmos      0:nmos      0:nmos      0:pmos    
 region        Linear      Cutoff      Linear      Cutoff      Linear
  id          4.2028u    -4.0432u     4.2028u     7.6210n   -16.0612n
  ibs       1.542e-22  -3.934e-24   1.542e-22   9.392e-25  -2.103e-24
  ibd      -127.6978a     3.0166p  -127.6978a  -999.9954f    25.6407a
  vgs       999.8982m  -101.8253u   999.8982m     0.         -1.0000 
  vds        41.0903u  -999.9589m    41.0903u   999.9744m   -25.5802u
  vbs         0.          0.          0.          0.          0.     
  vth       370.5929m  -225.7005m   370.5929m   302.3784m  -310.7612m
  vdsat     341.1940m   -46.2026m   341.1940m    39.8318m  -504.5937m
  vod       629.3053m   225.5986m   629.3053m  -302.3784m  -689.2388m
  beta      527.8808m   424.4603m   527.8808m     5.0666m     1.1424m
  gam eff   441.0000m   394.0000m   441.0000m   441.0000m   394.0000m
  gm          1.5766u   102.5392u     1.5766u   191.9183n    13.5110n
  gds       102.2763m     9.8338u   102.2763m    14.3449n   627.8611u
  gmb       829.0914n    23.0301u   829.0914n    54.4515n     5.4389n
  cdtot      55.2045f   155.9454f    55.2045f   220.4434a     1.2194f
  cgtot      41.5408f   117.0026f    41.5408f   137.7687a   915.2162a
  cstot      34.3751f   178.4696f    34.3751f   255.0966a   792.2893a
  cbtot      49.2921f   260.1143f    49.2921f   395.0850a     1.1369f
  cgs        22.7044f    58.2866f    22.7044f    66.4274a   514.6013a
  cgd        19.2533f    37.3720f    19.2533f    42.6865a   404.9048a



 subckt    xclk_gen.x  xclk_gen.x  xclk_gen.x  xclk_gen.x  xclk_gen.x
 element  68:m_0      68:m_1      69:m_0      69:m_1      70:m_0     
 model     0:nmos      0:pmos      0:nmos      0:pmos      0:nmos    
 region        Linear      Cutoff      Cutoff      Linear      Linear
  id         54.8624n   -57.2547n   121.9947n  -257.0380n   986.5605n
  ibs       4.072e-24  -3.765e-24   1.503e-23  -3.364e-23   6.516e-23
  ibd       -75.7425a     4.0002p   -15.9999p   410.3531a    -1.3620f
  vgs       999.9744m   -25.5802u    18.9202u  -999.9811m   999.9744m
  vds        18.9202u  -999.9811m   999.9744m   -25.5865u    21.2646u
  vbs         0.          0.          0.          0.          0.     
  vth       370.5944m  -225.6986m   302.3784m  -310.7612m   370.5942m
  vdsat     337.0862m   -46.2016m    39.8318m  -504.5826m   337.0863m
  vod       629.3800m   225.6730m  -302.3595m  -689.2199m   629.3802m
  beta       14.4096m     6.0227m    81.0664m    18.2781m   230.5529m
  gam eff   441.0000m   394.0000m   441.0000m   394.0000m   441.0000m
  gm         21.3085n     1.4521u     3.0721u   216.2348n   383.1837n
  gds         2.8996m   139.2593n   229.6257n    10.0456m    46.3934m
  gmb        11.2233n   326.1537n   871.6237n    87.0444n   201.8231n
  cdtot       1.7195f     2.3833f     3.5271f    19.5104f    27.5114f
  cgtot       1.1369f     1.6630f     2.2043f    14.6434f    18.1904f
  cstot       1.1430f     2.7389f     4.0816f    12.6766f    18.2873f
  cbtot       1.7655f     4.0710f     6.3214f    18.1907f    28.2486f
  cgs       619.7720a   826.9676a     1.0629f     8.2336f     9.9164f
  cgd       525.6006a   530.2694a   682.9857a     6.4785f     8.4096f



 subckt    xclk_gen.x  xa0_gen.xg  xa0_gen.xg  xa0_gen.xg  xa0_gen.xg
 element  70:m_1      71:m_0      71:m_1      72:m_0      72:m_1     
 model     0:pmos      0:nmos      0:pmos      0:nmos      0:pmos    
 region        Cutoff      Cutoff      Linear      Linear      Cutoff
  id       -916.0696n     7.6210n   -16.0612n    54.8624n   -57.2547n
  ibs      -6.024e-23   9.392e-25  -2.103e-24   4.072e-24  -3.765e-24
  ibd        64.0026p  -999.9954f    25.6407a   -75.7425a     4.0002p
  vgs       -25.5865u     0.         -1.0000    999.9744m   -25.5802u
  vds      -999.9787m   999.9744m   -25.5802u    18.9202u  -999.9811m
  vbs         0.          0.          0.          0.          0.     
  vth      -225.6988m   302.3784m  -310.7612m   370.5944m  -225.6986m
  vdsat     -46.2016m    39.8318m  -504.5937m   337.0862m   -46.2016m
  vod       225.6732m  -302.3784m  -689.2388m   629.3800m   225.6730m
  beta       96.3633m     5.0666m     1.1424m    14.4096m     6.0227m
  gam eff   394.0000m   441.0000m   394.0000m   441.0000m   394.0000m
  gm         23.2334u   191.9183n    13.5110n    21.3085n     1.4521u
  gds         2.2281u    14.3449n   627.8611u     2.8996m   139.2593n
  gmb         5.2184u    54.4515n     5.4389n    11.2233n   326.1537n
  cdtot      38.1333f   220.4434a     1.2194f     1.7195f     2.3833f
  cgtot      26.6086f   137.7687a   915.2162a     1.1369f     1.6630f
  cstot      43.8225f   255.0966a   792.2893a     1.1430f     2.7389f
  cbtot      65.1361f   395.0850a     1.1369f     1.7655f     4.0710f
  cgs        13.2315f    66.4274a   514.6013a   619.7720a   826.9676a
  cgd         8.4843f    42.6865a   404.9048a   525.6006a   530.2694a



 subckt    xa0_gen.xg  xa0_gen.xg  xa0_gen.xg  xa0_gen.xg  xa255_gen.
 element  73:m_0      73:m_1      74:m_0      74:m_1      75:m_0     
 model     0:nmos      0:pmos      0:nmos      0:pmos      0:nmos    
 region        Cutoff      Linear      Linear      Cutoff      Cutoff
  id        121.9947n  -257.0380n   986.5605n  -916.0696n     7.6210n
  ibs       1.503e-23  -3.364e-23   6.516e-23  -6.024e-23   9.392e-25
  ibd       -15.9999p   410.3531a    -1.3620f    64.0026p  -999.9954f
  vgs        18.9202u  -999.9811m   999.9744m   -25.5865u     0.     
  vds       999.9744m   -25.5865u    21.2646u  -999.9787m   999.9744m
  vbs         0.          0.          0.          0.          0.     
  vth       302.3784m  -310.7612m   370.5942m  -225.6988m   302.3784m
  vdsat      39.8318m  -504.5826m   337.0863m   -46.2016m    39.8318m
  vod      -302.3595m  -689.2199m   629.3802m   225.6732m  -302.3784m
  beta       81.0664m    18.2781m   230.5529m    96.3633m     5.0666m
  gam eff   441.0000m   394.0000m   441.0000m   394.0000m   441.0000m
  gm          3.0721u   216.2348n   383.1837n    23.2334u   191.9183n
  gds       229.6257n    10.0456m    46.3934m     2.2281u    14.3449n
  gmb       871.6237n    87.0444n   201.8231n     5.2184u    54.4515n
  cdtot       3.5271f    19.5104f    27.5114f    38.1333f   220.4434a
  cgtot       2.2043f    14.6434f    18.1904f    26.6086f   137.7687a
  cstot       4.0816f    12.6766f    18.2873f    43.8225f   255.0966a
  cbtot       6.3214f    18.1907f    28.2486f    65.1361f   395.0850a
  cgs         1.0629f     8.2336f     9.9164f    13.2315f    66.4274a
  cgd       682.9857a     6.4785f     8.4096f     8.4843f    42.6865a



 subckt    xa255_gen.  xa255_gen.  xa255_gen.  xa255_gen.  xa255_gen.
 element  75:m_1      76:m_0      76:m_1      77:m_0      77:m_1     
 model     0:pmos      0:nmos      0:pmos      0:nmos      0:pmos    
 region        Linear      Linear      Cutoff      Cutoff      Linear
  id        -16.0612n    54.8624n   -57.2547n   121.9947n  -257.0380n
  ibs      -2.103e-24   4.072e-24  -3.765e-24   1.503e-23  -3.364e-23
  ibd        25.6407a   -75.7425a     4.0002p   -15.9999p   410.3531a
  vgs        -1.0000    999.9744m   -25.5802u    18.9202u  -999.9811m
  vds       -25.5802u    18.9202u  -999.9811m   999.9744m   -25.5865u
  vbs         0.          0.          0.          0.          0.     
  vth      -310.7612m   370.5944m  -225.6986m   302.3784m  -310.7612m
  vdsat    -504.5937m   337.0862m   -46.2016m    39.8318m  -504.5826m
  vod      -689.2388m   629.3800m   225.6730m  -302.3595m  -689.2199m
  beta        1.1424m    14.4096m     6.0227m    81.0664m    18.2781m
  gam eff   394.0000m   441.0000m   394.0000m   441.0000m   394.0000m
  gm         13.5110n    21.3085n     1.4521u     3.0721u   216.2348n
  gds       627.8611u     2.8996m   139.2593n   229.6257n    10.0456m
  gmb         5.4389n    11.2233n   326.1537n   871.6237n    87.0444n
  cdtot       1.2194f     1.7195f     2.3833f     3.5271f    19.5104f
  cgtot     915.2162a     1.1369f     1.6630f     2.2043f    14.6434f
  cstot     792.2893a     1.1430f     2.7389f     4.0816f    12.6766f
  cbtot       1.1369f     1.7655f     4.0710f     6.3214f    18.1907f
  cgs       514.6013a   619.7720a   826.9676a     1.0629f     8.2336f
  cgd       404.9048a   525.6006a   530.2694a   682.9857a     6.4785f



 subckt    xa255_gen.  xa255_gen.
 element  78:m_0      78:m_1     
 model     0:nmos      0:pmos    
 region        Linear      Cutoff
  id        986.5605n  -916.0696n
  ibs       6.516e-23  -6.024e-23
  ibd        -1.3620f    64.0026p
  vgs       999.9744m   -25.5865u
  vds        21.2646u  -999.9787m
  vbs         0.          0.     
  vth       370.5942m  -225.6988m
  vdsat     337.0863m   -46.2016m
  vod       629.3802m   225.6732m
  beta      230.5529m    96.3633m
  gam eff   441.0000m   394.0000m
  gm        383.1837n    23.2334u
  gds        46.3934m     2.2281u
  gmb       201.8231n     5.2184u
  cdtot      27.5114f    38.1333f
  cgtot      18.1904f    26.6086f
  cstot      18.2873f    43.8225f
  cbtot      28.2486f    65.1361f
  cgs         9.9164f    13.2315f
  cgd         8.4096f     8.4843f



 ******  
 * file: task5wt.sp

  ******  transient analysis tnom=  25.000 temp=  27.000 *****
 td_ck2wlr= 124.3123p  targ= 692.4281p   trig= 568.1158p
 td_ck2wlf= 441.9896p  targ=   1.5103n   trig=   1.0683n
 wl_pw= 817.8917p  targ=   2.5103n   trig=   1.6924n
 max_bit_b=   1.0087     at=   3.6973n
             from=   0.         to=   4.5000n
 min_bit=  -1.6891m    at=   2.5115n
             from=   0.         to=   4.5000n
 supply_voltage=   1.0000   from=   0.          to=   4.5000n

          ***** job concluded
1****** HSPICE -- F-2011.09-SP2 32-BIT (Feb 27 2012) linux ******               
 ******  
 * file: task5wt.sp

  ******  job statistics summary tnom=  25.000 temp=  27.000 *****
  
  
 ******  Machine Information  ******
 CPU:
 model name	: Quad-Core AMD Opteron(tm) Processor 2384
 cpu MHz	: 800.000
  
 OS:
 Linux version 3.2.0-33-generic (buildd@batsu) (gcc version 4.6.3 (Ubuntu/Linaro
  4.6.3-1ubuntu5) ) #52-Ubuntu SMP Thu Oct 18 16:29:15 UTC 2012


  ******  HSPICE Threads Information  ******

  Command Line Threads Count :     1
  Available CPU Count        :     8
  Actual Threads Count       :     1


  ******  Circuit Statistics  ******
  # nodes       =     957 # elements   =     275
  # resistors   =       1 # capacitors =      26 # inductors   =       0
  # mutual_inds =       0 # vccs       =       0 # vcvs        =       3
  # cccs        =       6 # ccvs       =       0 # volt_srcs   =      32
  # curr_srcs   =       0 # diodes     =       0 # bjts        =       0
  # jfets       =       0 # mosfets    =     207 # U elements  =       0
  # T elements  =       0 # W elements =       0 # B elements  =       0
  # S elements  =       0 # P elements =       0 # va device   =       0
  # vector_srcs =       0


  ******  Runtime Statistics (seconds)  ******

  analysis           time    # points   tot. iter  conv.iter
  op point           0.12           1         123
  transient          2.66        9001        6921        1432 rev=       220
  readin             0.02
  errchk             0.04
  setup              0.00
  output             0.00


           peak memory used         91.69 megabytes
           total cpu time            2.86 seconds
           total elapsed time        3.19 seconds
           job started at     18:21:52 03/07/2013
           job ended   at     18:21:55 03/07/2013


 lic: Release hspice token(s) 
