Using: /usr/class/ee/synopsys/hspice/F-2011.09-SP2/hspice/linux/hspice task3.sp
 ****** HSPICE -- F-2011.09-SP2 32-BIT (Feb 27 2012) linux ******               
  Copyright (C) 2011 Synopsys, Inc. All Rights Reserved.                        
  Unpublished-rights reserved under US copyright laws.
  This program is protected by law and is subject to the
  terms and conditions of the license agreement from Synopsys.
  Use of this program is your acceptance to be bound by the
  license agreement. HSPICE is the trademark of Synopsys, Inc.
  Input File: task3.sp                                                          
  Command line options: task3.sp
 lic:  
 lic: FLEXlm: v10.8 
 lic: USER:   ronaldv              HOSTNAME: corn23.stanford.edu 
 lic: HOSTID: 001b213a6419         PID:      24172 
 lic: Using FLEXlm license file: 
 lic: 27000@cadlic0.stanford.edu 
 lic: Checkout 1 hspice 
 lic: License/Maintenance for hspice will expire on 16-nov-2013/2012.06 
 lic: 2(in_use)/100(total) FLOATING license(s) on SERVER cadlic0.stanford.edu 
 lic:   
 Init: read install configuration file: /usr/class/ee/synopsys/hspice/F-2011.09-SP2/hspice/meta.cfg

 **warning**  runlvl smaller than 5, reset to 5  when accurate turned on
 scientific notation:
 a=10**-18  f=10**-15  p=10**-12  n=10**-9  u=10**-6
 m=10**-3   k=10**3    x=10**6    g=10**9 
  **warning** (./schem.task3.ckt:229) Global net name, "vdd", in subckt pin list. The pin will be connected to the local net. Recommend to not use global net names in subckt pin lists.

 **warning**  runlvl smaller than 5, reset to 5  when accurate turned on
1****** HSPICE -- F-2011.09-SP2 32-BIT (Feb 27 2012) linux ******               
 ******  
 ee-313 sense amplifier analysis

  ******  circuit name directory
 circuit number to circuit name directory
   number circuitname                     definition         multiplier
        0 main circuit
        1 xi5.                            predecode_24       1.00 
        2 xi1.                            decode_stage       1.00 
        3 xi4.                            predecode_416      1.00 
        4 xisram.                         sram               1.00 
        5 xi5.xi36.                       nand3              1.00 
        6 xi5.xi37.                       nand3              1.00 
        7 xi5.xi38.                       nand3              1.00 
        8 xi5.xi39.                       nand3              1.00 
        9 xi5.xu3.                        inv_pcell_01       1.00 
       10 xi5.xu2.                        inv_pcell_01       1.00 
       11 xi5.xu1.                        inv_pcell_01       1.00 
       12 xi5.xu0.                        inv_pcell_01       1.00 
       13 xi1.xu7.                        inv_pcell_2        1.00 
       14 xi1.xu5.                        inv_pcell_2        1.00 
       15 xi1.xu1.                        nand_pcell_3       1.00 
       16 xi1.xu3.                        nand_pcell_3       1.00 
       17 xi1.xu2.                        nand_pcell_4       1.00 
       18 xi1.xu0.                        nand_pcell_4       1.00 
       19 xi1.xu6.                        inv_pcell_5        1.00 
       20 xi1.xu8.                        inv_pcell_5        1.00 
       21 xi4.xi17.                       nand_pcell_6       1.00 
       22 xi4.xi15.                       nand_pcell_6       1.00 
       23 xi4.xu2.                        inv_pcell_78       1.00 
       24 xi4.xu0.                        inv_pcell_78       1.00 
       25 xi4.xu13.                       inv_pcell_910      1.00 
       26 xi4.xu15.                       inv_pcell_910      1.00 
       27 xi4.xi16.                       nand_pcell_11      1.00 
       28 xi4.xi18.                       nand_pcell_11      1.00 
       29 xi4.xu14.                       inv_pcell_1213     1.00 
       30 xi4.xu12.                       inv_pcell_1213     1.00 
       31 xi4.xu1.                        inv_pcell_1415     1.00 
       32 xi4.xu3.                        inv_pcell_1415     1.00 
       33 xi4.xu10.                       inv_pcell_16       1.00 
       34 xi4.xu8.                        inv_pcell_16       1.00 
       35 xi4.xu9.                        inv_pcell_17       1.00 
       36 xi4.xu11.                       inv_pcell_17       1.00 
       37 xisram.xi16.                    write              1.00 
       38 xisram.xi17.                    write            254.00 
       39 xisram.xi14.                    write              1.00 
       40 xisram.xibottom_right.          mc                 1.00 
       41 xisram.xi13.                    mc               254.00 
       42 xisram.xibottom_left.           mc                 1.00 
       43 xisram.xi11.                    mc               254.00 
       44 xisram.xi10.                    mc                64.52k
       45 xisram.xi12.                    mc               254.00 
       46 xisram.xitop_right.             mc                 1.00 
       47 xisram.xi9.                     mc               254.00 
       48 xisram.xitop_left.              mc                 1.00 
       49 xisram.xi16.xu0.                inv_pcell_13       1.00 
       50 xisram.xi16.xu2.                inv_pcell_14       1.00 
       51 xisram.xi16.xu1.                inv_pcell_14       1.00 
       52 xisram.xi17.xu0.                inv_pcell_13     254.00 
       53 xisram.xi17.xu2.                inv_pcell_14     254.00 
       54 xisram.xi17.xu1.                inv_pcell_14     254.00 
       55 xisram.xi14.xu0.                inv_pcell_13       1.00 
       56 xisram.xi14.xu2.                inv_pcell_14       1.00 
       57 xisram.xi14.xu1.                inv_pcell_14       1.00 


 circuit parameter definitions
  parameter          =  value 

     0:supply                                                  =   1.0000       
     0:s1_wn                                                   =   9.0000       
     0:s1_wp                                                   =   3.0000       
     0:s2_wn                                                   =   7.0000       
     0:s2_wp                                                   =  41.0000       
     0:s3_wn                                                   =  24.0000       
     0:s3_wp                                                   =   8.0000       
     0:s4_wn                                                   =  22.0000       
     0:s4_wp                                                   = 133.0000       
     0:s5_wn                                                   = 277.0000       
     0:s5_wp                                                   = 138.0000       
     0:s6_wn                                                   = 369.0000       
     0:s6_wp                                                   =   2.2130k      
     0:s7_wn                                                   = 296.0000       
     0:s7_wp                                                   = 104.0000       
     0:s8_wn                                                   = 259.0000       
     0:s8_wp                                                   =   1.5560k      
     0:half_vdd                                                = 500.0000m      
     0:read_1_r0_diff_delay                                    =   0.           
     0:read_0_r0_diff_delay                                    =   0.           
     0:wl0_delay_r                                             =   0.           
     0:wl0_delay_f                                             =   0.           
     0:read_0_r255_diff_delay                                  =   0.           
     0:read_1_r255_diff_delay                                  =   0.           
     0:wl255_delay_r                                           =   0.           
     0:wl255_delay_f                                           =   0.           
     5:nl                                                      =   2.0000       
     5:nw                                                      =   9.0000       
     5:nm                                                      =   1.0000       
     5:pl                                                      =   2.0000       
     5:pw                                                      =   3.0000       
     5:pm                                                      =   1.0000       




 constants  - tnom         kt           vt           gapsi        ni
            298.15000    4.1163e-21    25.69184m     1.11562    1.2565e+16 
  **info** (task3.sp:27) DC voltage reset to initial transient source value              in source        0:vblpc_b             new dc=  0.0000D+00
  **warning** (/afs/ir.stanford.edu/class/ee313/ee313_spice_header.h:18) Both nodes of element vgnd are connected together; Line ignored.
 ** warning** associated with encrypted blocks were suppressed

1****** HSPICE -- F-2011.09-SP2 32-BIT (Feb 27 2012) linux ******               
 ******  
 ee-313 sense amplifier analysis

  ******  circuit element summary tnom=  25.000 temp=  25.000 *****


 **** capacitors
  
  
                                                                     
 element name        0:c_sidelo    0:c_sidelo   40:c2      40:c1     
 node1               0:net17       0:net14       0:bl63     0:bl_b63 
 node2               0:0           0:0           0:0        0:0      
 model                                                               
 cap eff            22.5300f      22.5300f      88.0000a   88.0000a  
 tc1                 0.            0.            0.         0.       
 tc2                 0.            0.            0.         0.       
 scale               1.0000        1.0000        1.0000     1.0000   
 ic                  0.            0.            0.         0.       
 m                   1.0000        1.0000        1.0000     1.0000   
 w                   0.            0.            0.         0.       
 l                   0.            0.            0.         0.       
 temp               25.0000       25.0000       25.0000    25.0000   
  
  
                                                              
 element name       40:c0      41:c2      41:c1      41:c0    
 node1               0:wl255    4:net9     4:net8     0:wl255 
 node2               0:0        0:0        0:0        0:0     
 model                                                        
 cap eff           140.0000a   22.3520f   22.3520f   35.5600f 
 tc1                 0.         0.         0.         0.      
 tc2                 0.         0.         0.         0.      
 scale               1.0000     1.0000     1.0000     1.0000  
 ic                  0.         0.         0.         0.      
 m                   1.0000   254.0000   254.0000   254.0000  
 w                   0.         0.         0.         0.      
 l                   0.         0.         0.         0.      
 temp               25.0000    25.0000    25.0000    25.0000  
  
  
                                                              
 element name       42:c2      42:c1      42:c0      43:c2    
 node1               0:bl0      0:bl_b0    0:wl255    0:bl0   
 node2               0:0        0:0        0:0        0:0     
 model                                                        
 cap eff            88.0000a   88.0000a  140.0000a   22.3520f 
 tc1                 0.         0.         0.         0.      
 tc2                 0.         0.         0.         0.      
 scale               1.0000     1.0000     1.0000     1.0000  
 ic                  0.         0.         0.         0.      
 m                   1.0000     1.0000     1.0000   254.0000  
 w                   0.         0.         0.         0.      
 l                   0.         0.         0.         0.      
 temp               25.0000    25.0000    25.0000    25.0000  
  
  
                                                              
 element name       43:c1      44:c2      44:c1      45:c2    
 node1               0:bl_b0    4:net9     4:net8     0:bl63  
 node2               0:0        0:0        0:0        0:0     
 model                                                        
 cap eff            22.3520f    5.6778p    5.6778p   22.3520f 
 tc1                 0.         0.         0.         0.      
 tc2                 0.         0.         0.         0.      
 scale               1.0000     1.0000     1.0000     1.0000  
 ic                  0.         0.         0.         0.      
 m                 254.0000    64.5200k   64.5200k  254.0000  
 w                   0.         0.         0.         0.      
 l                   0.         0.         0.         0.      
 temp               25.0000    25.0000    25.0000    25.0000  
  
  
                                                                
 element name       45:c1       46:c2      46:c1       46:c0    
 node1               0:bl_b63    0:bl63     0:bl_b63    0:wl0   
 node2               0:0         0:0        0:0         0:0     
 model                                                          
 cap eff            22.3520f    88.0000a   88.0000a   140.0000a 
 tc1                 0.          0.         0.          0.      
 tc2                 0.          0.         0.          0.      
 scale               1.0000      1.0000     1.0000      1.0000  
 ic                  0.          0.         0.          0.      
 m                 254.0000      1.0000     1.0000      1.0000  
 w                   0.          0.         0.          0.      
 l                   0.          0.         0.          0.      
 temp               25.0000     25.0000    25.0000     25.0000  
  
  
                                                              
 element name       47:c2      47:c1      47:c0      48:c2    
 node1               4:net9     4:net8     0:wl0      0:bl0   
 node2               0:0        0:0        0:0        0:0     
 model                                                        
 cap eff            22.3520f   22.3520f   35.5600f   88.0000a 
 tc1                 0.         0.         0.         0.      
 tc2                 0.         0.         0.         0.      
 scale               1.0000     1.0000     1.0000     1.0000  
 ic                  0.         0.         0.         0.      
 m                 254.0000   254.0000   254.0000     1.0000  
 w                   0.         0.         0.         0.      
 l                   0.         0.         0.         0.      
 temp               25.0000    25.0000    25.0000    25.0000  
  
  
                                        
 element name       48:c1      48:c0    
 node1               0:bl_b0    0:wl0   
 node2               0:0        0:0     
 model                                  
 cap eff            88.0000a  140.0000a 
 tc1                 0.         0.      
 tc2                 0.         0.      
 scale               1.0000     1.0000  
 ic                  0.         0.      
 m                   1.0000     1.0000  
 w                   0.         0.      
 l                   0.         0.      
 temp               25.0000    25.0000  


 **** independent sources

     name         node1        node2      dc volt    ac mag    ac phase    type
  v_supply  vdd               0                    1.0000     0.         0.      dc   
  v_supply1  vdd!              0                    1.0000     0.         0.      dc   
  vblpc_b  blpc_b            0                    0.         0.         0.      pulse
             initial value     0.     
             pulsed value.     1.0000 
             delay time...   500.0000p
             risetime.....    50.0000p
             falltime.....    50.0000p
             width........   500.0000p
             period.......     1.0000n

  vck  ck                0                    0.         0.         0.      pulse
             initial value     0.     
             pulsed value.     1.0000 
             delay time...   500.0000p
             risetime.....    50.0000p
             falltime.....    50.0000p
             width........   500.0000p
             period.......     1.0000n

  vdc3  address0          0                    1.0000     0.         0.      pwl  
                time        value

                   0.           1.0000 
                   1.3000n      1.0000 
                   1.3500n      0.     


  vdc4  address255        0                    0.         0.         0.      pwl  
                time        value

                   0.           0.     
                   1.3000n      0.     
                   1.3500n      1.0000 




 **** mosfets


 **** BSIM4 Model (Level 54)
  
  
                                                                    
 element name        5:m10         5:m9       5:m1       5:m7       
 drain               5:net9        5:net5     1:nand1    1:nand1    
 gate                0:address0    0:vdd!     0:ck       0:address0 
 source              0:0           5:net9     5:net5     0:vdd!     
 bulk                0:0           0:0        0:0        0:vdd!     
 model               0:nmos        0:nmos     0:nmos     0:pmos     
 w eff             188.0000n     188.0000n  188.0000n   56.0000n    
 l eff              29.0000n      29.0000n   29.0000n   29.0000n    
 rd eff              0.            0.         0.         0.         
 rs eff              0.            0.         0.         0.         
 cdsat              16.9167a      16.9167a   16.9167a    6.0606a    
 cssat              16.9167a      16.9167a   16.9167a    6.0606a    
 capbd             245.8633a     245.8633a  245.8633a  111.2291a    
 capbs             206.3425a     206.3425a  206.3425a   98.0555a    
 temp               25.0000       25.0000    25.0000    25.0000     
 aic                                                                
 nf                  1.0000        1.0000     1.0000     1.0000     
 min                 0.            0.         0.         0.         
 rbdb               15.0000       15.0000    15.0000    15.0000     
 rbsb               15.0000       15.0000    15.0000    15.0000     
 rbpb                5.0000        5.0000     5.0000     5.0000     
 rbps               15.0000       15.0000    15.0000    15.0000     
 rbpd               15.0000       15.0000    15.0000    15.0000     
 trnqsmod            0.            0.         0.         0.         
 acnqsmod            0.            0.         0.         0.         
 rbodymod            1.0000        1.0000     1.0000     1.0000     
 rgatemod            1.0000        1.0000     1.0000     1.0000     
 geomod              0.            0.         0.         0.         
 rgeomod             0.            0.         0.         0.         
 delvto              0.            0.         0.         0.         
 mulu0               1.0000        1.0000     1.0000     1.0000     
 delk1               0.            0.         0.         0.         
 delnfct             0.            0.         0.         0.         
 deltox              0.            0.         0.         0.         
 sa                  0.            0.         0.         0.         
 sb                  0.            0.         0.         0.         
 sd                  0.            0.         0.         0.         
 saeff               0.            0.         0.         0.         
 sbeff               0.            0.         0.         0.         
  
  
                                                                 
 element name        5:m6       5:m0       6:m10         6:m9    
 drain               1:nand1    1:nand1    6:net9        6:net5  
 gate                0:vdd!     0:ck       0:address0    0:0     
 source              0:vdd!     0:vdd!     0:0           6:net9  
 bulk                0:vdd!     0:vdd!     0:0           0:0     
 model               0:pmos     0:pmos     0:nmos        0:nmos  
 w eff              56.0000n   56.0000n  188.0000n     188.0000n 
 l eff              29.0000n   29.0000n   29.0000n      29.0000n 
 rd eff              0.         0.         0.            0.      
 rs eff              0.         0.         0.            0.      
 cdsat               6.0606a    6.0606a   16.9167a      16.9167a 
 cssat               6.0606a    6.0606a   16.9167a      16.9167a 
 capbd             111.2291a  111.2291a  245.8633a     245.8633a 
 capbs              98.0555a   98.0555a  206.3425a     206.3425a 
 temp               25.0000    25.0000    25.0000       25.0000  
 aic                                                             
 nf                  1.0000     1.0000     1.0000        1.0000  
 min                 0.         0.         0.            0.      
 rbdb               15.0000    15.0000    15.0000       15.0000  
 rbsb               15.0000    15.0000    15.0000       15.0000  
 rbpb                5.0000     5.0000     5.0000        5.0000  
 rbps               15.0000    15.0000    15.0000       15.0000  
 rbpd               15.0000    15.0000    15.0000       15.0000  
 trnqsmod            0.         0.         0.            0.      
 acnqsmod            0.         0.         0.            0.      
 rbodymod            1.0000     1.0000     1.0000        1.0000  
 rgatemod            1.0000     1.0000     1.0000        1.0000  
 geomod              0.         0.         0.            0.      
 rgeomod             0.         0.         0.            0.      
 delvto              0.         0.         0.            0.      
 mulu0               1.0000     1.0000     1.0000        1.0000  
 delk1               0.         0.         0.            0.      
 delnfct             0.         0.         0.            0.      
 deltox              0.         0.         0.            0.      
 sa                  0.         0.         0.            0.      
 sb                  0.         0.         0.            0.      
 sd                  0.         0.         0.            0.      
 saeff               0.         0.         0.            0.      
 sbeff               0.         0.         0.            0.      
  
  
                                                                 
 element name        6:m1       6:m7          6:m6       6:m0    
 drain               1:net22    1:net22       1:net22    1:net22 
 gate                0:ck       0:address0    0:0        0:ck    
 source              6:net5     0:vdd!        0:vdd!     0:vdd!  
 bulk                0:0        0:vdd!        0:vdd!     0:vdd!  
 model               0:nmos     0:pmos        0:pmos     0:pmos  
 w eff             188.0000n   56.0000n      56.0000n   56.0000n 
 l eff              29.0000n   29.0000n      29.0000n   29.0000n 
 rd eff              0.         0.            0.         0.      
 rs eff              0.         0.            0.         0.      
 cdsat              16.9167a    6.0606a       6.0606a    6.0606a 
 cssat              16.9167a    6.0606a       6.0606a    6.0606a 
 capbd             245.8633a  111.2291a     111.2291a  111.2291a 
 capbs             206.3425a   98.0555a      98.0555a   98.0555a 
 temp               25.0000    25.0000       25.0000    25.0000  
 aic                                                             
 nf                  1.0000     1.0000        1.0000     1.0000  
 min                 0.         0.            0.         0.      
 rbdb               15.0000    15.0000       15.0000    15.0000  
 rbsb               15.0000    15.0000       15.0000    15.0000  
 rbpb                5.0000     5.0000        5.0000     5.0000  
 rbps               15.0000    15.0000       15.0000    15.0000  
 rbpd               15.0000    15.0000       15.0000    15.0000  
 trnqsmod            0.         0.            0.         0.      
 acnqsmod            0.         0.            0.         0.      
 rbodymod            1.0000     1.0000        1.0000     1.0000  
 rgatemod            1.0000     1.0000        1.0000     1.0000  
 geomod              0.         0.            0.         0.      
 rgeomod             0.         0.            0.         0.      
 delvto              0.         0.            0.         0.      
 mulu0               1.0000     1.0000        1.0000     1.0000  
 delk1               0.         0.            0.         0.      
 delnfct             0.         0.            0.         0.      
 deltox              0.         0.            0.         0.      
 sa                  0.         0.            0.         0.      
 sb                  0.         0.            0.         0.      
 sd                  0.         0.            0.         0.      
 saeff               0.         0.            0.         0.      
 sbeff               0.         0.            0.         0.      
  
  
                                                                      
 element name        7:m10         7:m9       7:m1         7:m7       
 drain               7:net9        7:net5     1:nand1_1    1:nand1_1  
 gate                0:address2    0:vdd!     0:ck         0:address2 
 source              0:0           7:net9     7:net5       0:vdd!     
 bulk                0:0           0:0        0:0          0:vdd!     
 model               0:nmos        0:nmos     0:nmos       0:pmos     
 w eff             188.0000n     188.0000n  188.0000n     56.0000n    
 l eff              29.0000n      29.0000n   29.0000n     29.0000n    
 rd eff              0.            0.         0.           0.         
 rs eff              0.            0.         0.           0.         
 cdsat              16.9167a      16.9167a   16.9167a      6.0606a    
 cssat              16.9167a      16.9167a   16.9167a      6.0606a    
 capbd             245.8633a     245.8633a  245.8633a    111.2291a    
 capbs             206.3425a     206.3425a  206.3425a     98.0555a    
 temp               25.0000       25.0000    25.0000      25.0000     
 aic                                                                  
 nf                  1.0000        1.0000     1.0000       1.0000     
 min                 0.            0.         0.           0.         
 rbdb               15.0000       15.0000    15.0000      15.0000     
 rbsb               15.0000       15.0000    15.0000      15.0000     
 rbpb                5.0000        5.0000     5.0000       5.0000     
 rbps               15.0000       15.0000    15.0000      15.0000     
 rbpd               15.0000       15.0000    15.0000      15.0000     
 trnqsmod            0.            0.         0.           0.         
 acnqsmod            0.            0.         0.           0.         
 rbodymod            1.0000        1.0000     1.0000       1.0000     
 rgatemod            1.0000        1.0000     1.0000       1.0000     
 geomod              0.            0.         0.           0.         
 rgeomod             0.            0.         0.           0.         
 delvto              0.            0.         0.           0.         
 mulu0               1.0000        1.0000     1.0000       1.0000     
 delk1               0.            0.         0.           0.         
 delnfct             0.            0.         0.           0.         
 deltox              0.            0.         0.           0.         
 sa                  0.            0.         0.           0.         
 sb                  0.            0.         0.           0.         
 sd                  0.            0.         0.           0.         
 saeff               0.            0.         0.           0.         
 sbeff               0.            0.         0.           0.         
  
  
                                                                     
 element name        7:m6         7:m0         8:m10         8:m9    
 drain               1:nand1_1    1:nand1_1    8:net9        8:net5  
 gate                0:vdd!       0:ck         0:address2    0:0     
 source              0:vdd!       0:vdd!       0:0           8:net9  
 bulk                0:vdd!       0:vdd!       0:0           0:0     
 model               0:pmos       0:pmos       0:nmos        0:nmos  
 w eff              56.0000n     56.0000n    188.0000n     188.0000n 
 l eff              29.0000n     29.0000n     29.0000n      29.0000n 
 rd eff              0.           0.           0.            0.      
 rs eff              0.           0.           0.            0.      
 cdsat               6.0606a      6.0606a     16.9167a      16.9167a 
 cssat               6.0606a      6.0606a     16.9167a      16.9167a 
 capbd             111.2291a    111.2291a    245.8633a     245.8633a 
 capbs              98.0555a     98.0555a    206.3425a     206.3425a 
 temp               25.0000      25.0000      25.0000       25.0000  
 aic                                                                 
 nf                  1.0000       1.0000       1.0000        1.0000  
 min                 0.           0.           0.            0.      
 rbdb               15.0000      15.0000      15.0000       15.0000  
 rbsb               15.0000      15.0000      15.0000       15.0000  
 rbpb                5.0000       5.0000       5.0000        5.0000  
 rbps               15.0000      15.0000      15.0000       15.0000  
 rbpd               15.0000      15.0000      15.0000       15.0000  
 trnqsmod            0.           0.           0.            0.      
 acnqsmod            0.           0.           0.            0.      
 rbodymod            1.0000       1.0000       1.0000        1.0000  
 rgatemod            1.0000       1.0000       1.0000        1.0000  
 geomod              0.           0.           0.            0.      
 rgeomod             0.           0.           0.            0.      
 delvto              0.           0.           0.            0.      
 mulu0               1.0000       1.0000       1.0000        1.0000  
 delk1               0.           0.           0.            0.      
 delnfct             0.           0.           0.            0.      
 deltox              0.           0.           0.            0.      
 sa                  0.           0.           0.            0.      
 sb                  0.           0.           0.            0.      
 sd                  0.           0.           0.            0.      
 saeff               0.           0.           0.            0.      
 sbeff               0.           0.           0.            0.      
  
  
                                                                 
 element name        8:m1       8:m7          8:m6       8:m0    
 drain               1:net14    1:net14       1:net14    1:net14 
 gate                0:ck       0:address2    0:0        0:ck    
 source              8:net5     0:vdd!        0:vdd!     0:vdd!  
 bulk                0:0        0:vdd!        0:vdd!     0:vdd!  
 model               0:nmos     0:pmos        0:pmos     0:pmos  
 w eff             188.0000n   56.0000n      56.0000n   56.0000n 
 l eff              29.0000n   29.0000n      29.0000n   29.0000n 
 rd eff              0.         0.            0.         0.      
 rs eff              0.         0.            0.         0.      
 cdsat              16.9167a    6.0606a       6.0606a    6.0606a 
 cssat              16.9167a    6.0606a       6.0606a    6.0606a 
 capbd             245.8633a  111.2291a     111.2291a  111.2291a 
 capbs             206.3425a   98.0555a      98.0555a   98.0555a 
 temp               25.0000    25.0000       25.0000    25.0000  
 aic                                                             
 nf                  1.0000     1.0000        1.0000     1.0000  
 min                 0.         0.            0.         0.      
 rbdb               15.0000    15.0000       15.0000    15.0000  
 rbsb               15.0000    15.0000       15.0000    15.0000  
 rbpb                5.0000     5.0000        5.0000     5.0000  
 rbps               15.0000    15.0000       15.0000    15.0000  
 rbpd               15.0000    15.0000       15.0000    15.0000  
 trnqsmod            0.         0.            0.         0.      
 acnqsmod            0.         0.            0.         0.      
 rbodymod            1.0000     1.0000        1.0000     1.0000  
 rgatemod            1.0000     1.0000        1.0000     1.0000  
 geomod              0.         0.            0.         0.      
 rgeomod             0.         0.            0.         0.      
 delvto              0.         0.            0.         0.      
 mulu0               1.0000     1.0000        1.0000     1.0000  
 delk1               0.         0.            0.         0.      
 delnfct             0.         0.            0.         0.      
 deltox              0.         0.            0.         0.      
 sa                  0.         0.            0.         0.      
 sb                  0.         0.            0.         0.      
 sd                  0.         0.            0.         0.      
 saeff               0.         0.            0.         0.      
 sbeff               0.         0.            0.         0.      
  
  
                                                                  
 element name        9:m1       9:m2      10:m1        10:m2      
 drain               1:net6     1:net6     0:net1       0:net1    
 gate                1:net14    1:net14    1:nand1_1    1:nand1_1 
 source              0:vdd!     0:0        0:vdd!       0:0       
 bulk                0:vdd!     0:0        0:vdd!       0:0       
 model               0:pmos     0:nmos     0:pmos       0:nmos    
 w eff             892.0000n  144.0000n  892.0000n    144.0000n   
 l eff              29.0000n   29.0000n   29.0000n     29.0000n   
 rd eff              0.         0.         0.           0.        
 rs eff              0.         0.         0.           0.        
 cdsat              74.8155a   13.2980a   74.8155a     13.2980a   
 cssat              74.8155a   13.2980a   74.8155a     13.2980a   
 capbd             963.9123a  200.9852a  963.9123a    200.9852a   
 capbs             783.8731a  170.2468a  783.8731a    170.2468a   
 temp               25.0000    25.0000    25.0000      25.0000    
 aic                                                              
 nf                  1.0000     1.0000     1.0000       1.0000    
 min                 0.         0.         0.           0.        
 rbdb               15.0000    15.0000    15.0000      15.0000    
 rbsb               15.0000    15.0000    15.0000      15.0000    
 rbpb                5.0000     5.0000     5.0000       5.0000    
 rbps               15.0000    15.0000    15.0000      15.0000    
 rbpd               15.0000    15.0000    15.0000      15.0000    
 trnqsmod            0.         0.         0.           0.        
 acnqsmod            0.         0.         0.           0.        
 rbodymod            1.0000     1.0000     1.0000       1.0000    
 rgatemod            1.0000     1.0000     1.0000       1.0000    
 geomod              0.         0.         0.           0.        
 rgeomod             0.         0.         0.           0.        
 delvto              0.         0.         0.           0.        
 mulu0               1.0000     1.0000     1.0000       1.0000    
 delk1               0.         0.         0.           0.        
 delnfct             0.         0.         0.           0.        
 deltox              0.         0.         0.           0.        
 sa                  0.         0.         0.           0.        
 sb                  0.         0.         0.           0.        
 sd                  0.         0.         0.           0.        
 saeff               0.         0.         0.           0.        
 sbeff               0.         0.         0.           0.        
  
  
                                                              
 element name       11:m1      11:m2      12:m1      12:m2    
 drain               1:net10    1:net10    0:net2     0:net2  
 gate                1:net22    1:net22    1:nand1    1:nand1 
 source              0:vdd!     0:0        0:vdd!     0:0     
 bulk                0:vdd!     0:0        0:vdd!     0:0     
 model               0:pmos     0:nmos     0:pmos     0:nmos  
 w eff             892.0000n  144.0000n  892.0000n  144.0000n 
 l eff              29.0000n   29.0000n   29.0000n   29.0000n 
 rd eff              0.         0.         0.         0.      
 rs eff              0.         0.         0.         0.      
 cdsat              74.8155a   13.2980a   74.8155a   13.2980a 
 cssat              74.8155a   13.2980a   74.8155a   13.2980a 
 capbd             963.9123a  200.9852a  963.9123a  200.9852a 
 capbs             783.8731a  170.2468a  783.8731a  170.2468a 
 temp               25.0000    25.0000    25.0000    25.0000  
 aic                                                          
 nf                  1.0000     1.0000     1.0000     1.0000  
 min                 0.         0.         0.         0.      
 rbdb               15.0000    15.0000    15.0000    15.0000  
 rbsb               15.0000    15.0000    15.0000    15.0000  
 rbpb                5.0000     5.0000     5.0000     5.0000  
 rbps               15.0000    15.0000    15.0000    15.0000  
 rbpd               15.0000    15.0000    15.0000    15.0000  
 trnqsmod            0.         0.         0.         0.      
 acnqsmod            0.         0.         0.         0.      
 rbodymod            1.0000     1.0000     1.0000     1.0000  
 rgatemod            1.0000     1.0000     1.0000     1.0000  
 geomod              0.         0.         0.         0.      
 rgeomod             0.         0.         0.         0.      
 delvto              0.         0.         0.         0.      
 mulu0               1.0000     1.0000     1.0000     1.0000  
 delk1               0.         0.         0.         0.      
 delnfct             0.         0.         0.         0.      
 deltox              0.         0.         0.         0.      
 sa                  0.         0.         0.         0.      
 sb                  0.         0.         0.         0.      
 sd                  0.         0.         0.         0.      
 saeff               0.         0.         0.         0.      
 sbeff               0.         0.         0.         0.      
  
  
                                                              
 element name       13:m1      13:m2      14:m1      14:m2    
 drain               0:wl255    0:wl255    0:wl0      0:wl0   
 gate                2:net11    2:net11    2:net17    2:net17 
 source              0:vdd!     0:0        0:vdd!     0:0     
 bulk                0:vdd!     0:0        0:vdd!     0:0     
 model               0:pmos     0:nmos     0:pmos     0:nmos  
 w eff              34.2220u    5.6880u   34.2220u    5.6880u 
 l eff              29.0000n   29.0000n   29.0000n   29.0000n 
 rd eff              0.         0.         0.         0.      
 rs eff              0.         0.         0.         0.      
 cdsat               2.8160f  469.2512a    2.8160f  469.2512a 
 cssat               2.8160f  469.2512a    2.8160f  469.2512a 
 capbd              34.9590f    5.8556f   34.9590f    5.8556f 
 capbs              28.1263f    4.7183f   28.1263f    4.7183f 
 temp               25.0000    25.0000    25.0000    25.0000  
 aic                                                          
 nf                  1.0000     1.0000     1.0000     1.0000  
 min                 0.         0.         0.         0.      
 rbdb               15.0000    15.0000    15.0000    15.0000  
 rbsb               15.0000    15.0000    15.0000    15.0000  
 rbpb                5.0000     5.0000     5.0000     5.0000  
 rbps               15.0000    15.0000    15.0000    15.0000  
 rbpd               15.0000    15.0000    15.0000    15.0000  
 trnqsmod            0.         0.         0.         0.      
 acnqsmod            0.         0.         0.         0.      
 rbodymod            1.0000     1.0000     1.0000     1.0000  
 rgatemod            1.0000     1.0000     1.0000     1.0000  
 geomod              0.         0.         0.         0.      
 rgeomod             0.         0.         0.         0.      
 delvto              0.         0.         0.         0.      
 mulu0               1.0000     1.0000     1.0000     1.0000  
 delk1               0.         0.         0.         0.      
 delnfct             0.         0.         0.         0.      
 deltox              0.         0.         0.         0.      
 sa                  0.         0.         0.         0.      
 sb                  0.         0.         0.         0.      
 sd                  0.         0.         0.         0.      
 saeff               0.         0.         0.         0.      
 sbeff               0.         0.         0.         0.      
  
  
                                                              
 element name       15:m2      15:m0      15:m3      15:m1    
 drain               2:net14    2:net14   15:mid_a    2:net14 
 gate                0:net14    0:0        0:net14    0:0     
 source              0:vdd!     0:vdd!     0:0       15:mid_a 
 bulk                0:vdd!     0:vdd!     0:0        0:0     
 model               0:pmos     0:pmos     0:nmos     0:nmos  
 w eff              34.1700u   34.1700u   97.5300u   97.5300u 
 l eff              29.0000n   29.0000n   29.0000n   29.0000n 
 rd eff              0.         0.         0.         0.      
 rs eff              0.         0.         0.         0.      
 cdsat               2.8321f    2.8321f    8.0430f    8.0430f 
 cssat               2.8321f    2.8321f    8.0430f    8.0430f 
 capbd               2.3776f    2.3776f    6.6859f    6.6859f 
 capbs               1.9209f    1.9209f    5.3861f    5.3861f 
 temp               25.0000    25.0000    25.0000    25.0000  
 aic                                                          
 nf                  1.0000     1.0000     1.0000     1.0000  
 min                 0.         0.         0.         0.      
 rbdb               15.0000    15.0000    15.0000    15.0000  
 rbsb               15.0000    15.0000    15.0000    15.0000  
 rbpb                5.0000     5.0000     5.0000     5.0000  
 rbps               15.0000    15.0000    15.0000    15.0000  
 rbpd               15.0000    15.0000    15.0000    15.0000  
 trnqsmod            0.         0.         0.         0.      
 acnqsmod            0.         0.         0.         0.      
 rbodymod            1.0000     1.0000     1.0000     1.0000  
 rgatemod            1.0000     1.0000     1.0000     1.0000  
 geomod              0.         0.         0.         0.      
 rgeomod             0.         0.         0.         0.      
 delvto              0.         0.         0.         0.      
 mulu0               1.0000     1.0000     1.0000     1.0000  
 delk1               0.         0.         0.         0.      
 delnfct             0.         0.         0.         0.      
 deltox              0.         0.         0.         0.      
 sa                  0.         0.         0.         0.      
 sb                  0.         0.         0.         0.      
 sd                  0.         0.         0.         0.      
 saeff               0.         0.         0.         0.      
 sbeff               0.         0.         0.         0.      
  
  
                                                              
 element name       16:m2      16:m0      16:m3      16:m1    
 drain               2:net8     2:net8    16:mid_a    2:net8  
 gate                0:net17    0:0        0:net17    0:0     
 source              0:vdd!     0:vdd!     0:0       16:mid_a 
 bulk                0:vdd!     0:vdd!     0:0        0:0     
 model               0:pmos     0:pmos     0:nmos     0:nmos  
 w eff              34.1700u   34.1700u   97.5300u   97.5300u 
 l eff              29.0000n   29.0000n   29.0000n   29.0000n 
 rd eff              0.         0.         0.         0.      
 rs eff              0.         0.         0.         0.      
 cdsat               2.8321f    2.8321f    8.0430f    8.0430f 
 cssat               2.8321f    2.8321f    8.0430f    8.0430f 
 capbd               2.3776f    2.3776f    6.6859f    6.6859f 
 capbs               1.9209f    1.9209f    5.3861f    5.3861f 
 temp               25.0000    25.0000    25.0000    25.0000  
 aic                                                          
 nf                  1.0000     1.0000     1.0000     1.0000  
 min                 0.         0.         0.         0.      
 rbdb               15.0000    15.0000    15.0000    15.0000  
 rbsb               15.0000    15.0000    15.0000    15.0000  
 rbpb                5.0000     5.0000     5.0000     5.0000  
 rbps               15.0000    15.0000    15.0000    15.0000  
 rbpd               15.0000    15.0000    15.0000    15.0000  
 trnqsmod            0.         0.         0.         0.      
 acnqsmod            0.         0.         0.         0.      
 rbodymod            1.0000     1.0000     1.0000     1.0000  
 rgatemod            1.0000     1.0000     1.0000     1.0000  
 geomod              0.         0.         0.         0.      
 rgeomod             0.         0.         0.         0.      
 delvto              0.         0.         0.         0.      
 mulu0               1.0000     1.0000     1.0000     1.0000  
 delk1               0.         0.         0.         0.      
 delnfct             0.         0.         0.         0.      
 deltox              0.         0.         0.         0.      
 sa                  0.         0.         0.         0.      
 sb                  0.         0.         0.         0.      
 sd                  0.         0.         0.         0.      
 saeff               0.         0.         0.         0.      
 sbeff               0.         0.         0.         0.      
  
  
                                                              
 element name       17:m2      17:m0      17:m3      17:m1    
 drain               2:net11    2:net11   17:mid_a    2:net11 
 gate                0:net17    0:vdd!     0:net17    0:vdd!  
 source              0:vdd!     0:vdd!     0:0       17:mid_a 
 bulk                0:vdd!     0:vdd!     0:0        0:0     
 model               0:pmos     0:pmos     0:nmos     0:nmos  
 w eff               2.2780u    2.2780u    6.5020u    6.5020u 
 l eff              29.0000n   29.0000n   29.0000n   29.0000n 
 rd eff              0.         0.         0.         0.      
 rs eff              0.         0.         0.         0.      
 cdsat             188.8038a  188.8038a  536.1967a  536.1967a 
 cssat             188.8038a  188.8038a  536.1967a  536.1967a 
 capbd               2.3776f    2.3776f    6.6859f    6.6859f 
 capbs               1.9209f    1.9209f    5.3861f    5.3861f 
 temp               25.0000    25.0000    25.0000    25.0000  
 aic                                                          
 nf                  1.0000     1.0000     1.0000     1.0000  
 min                 0.         0.         0.         0.      
 rbdb               15.0000    15.0000    15.0000    15.0000  
 rbsb               15.0000    15.0000    15.0000    15.0000  
 rbpb                5.0000     5.0000     5.0000     5.0000  
 rbps               15.0000    15.0000    15.0000    15.0000  
 rbpd               15.0000    15.0000    15.0000    15.0000  
 trnqsmod            0.         0.         0.         0.      
 acnqsmod            0.         0.         0.         0.      
 rbodymod            1.0000     1.0000     1.0000     1.0000  
 rgatemod            1.0000     1.0000     1.0000     1.0000  
 geomod              0.         0.         0.         0.      
 rgeomod             0.         0.         0.         0.      
 delvto              0.         0.         0.         0.      
 mulu0               1.0000     1.0000     1.0000     1.0000  
 delk1               0.         0.         0.         0.      
 delnfct             0.         0.         0.         0.      
 deltox              0.         0.         0.         0.      
 sa                  0.         0.         0.         0.      
 sb                  0.         0.         0.         0.      
 sd                  0.         0.         0.         0.      
 saeff               0.         0.         0.         0.      
 sbeff               0.         0.         0.         0.      
  
  
                                                              
 element name       18:m2      18:m0      18:m3      18:m1    
 drain               2:net17    2:net17   18:mid_a    2:net17 
 gate                0:net14    0:vdd!     0:net14    0:vdd!  
 source              0:vdd!     0:vdd!     0:0       18:mid_a 
 bulk                0:vdd!     0:vdd!     0:0        0:0     
 model               0:pmos     0:pmos     0:nmos     0:nmos  
 w eff               2.2780u    2.2780u    6.5020u    6.5020u 
 l eff              29.0000n   29.0000n   29.0000n   29.0000n 
 rd eff              0.         0.         0.         0.      
 rs eff              0.         0.         0.         0.      
 cdsat             188.8038a  188.8038a  536.1967a  536.1967a 
 cssat             188.8038a  188.8038a  536.1967a  536.1967a 
 capbd               2.3776f    2.3776f    6.6859f    6.6859f 
 capbs               1.9209f    1.9209f    5.3861f    5.3861f 
 temp               25.0000    25.0000    25.0000    25.0000  
 aic                                                          
 nf                  1.0000     1.0000     1.0000     1.0000  
 min                 0.         0.         0.         0.      
 rbdb               15.0000    15.0000    15.0000    15.0000  
 rbsb               15.0000    15.0000    15.0000    15.0000  
 rbpb                5.0000     5.0000     5.0000     5.0000  
 rbps               15.0000    15.0000    15.0000    15.0000  
 rbpd               15.0000    15.0000    15.0000    15.0000  
 trnqsmod            0.         0.         0.         0.      
 acnqsmod            0.         0.         0.         0.      
 rbodymod            1.0000     1.0000     1.0000     1.0000  
 rgatemod            1.0000     1.0000     1.0000     1.0000  
 geomod              0.         0.         0.         0.      
 rgeomod             0.         0.         0.         0.      
 delvto              0.         0.         0.         0.      
 mulu0               1.0000     1.0000     1.0000     1.0000  
 delk1               0.         0.         0.         0.      
 delnfct             0.         0.         0.         0.      
 deltox              0.         0.         0.         0.      
 sa                  0.         0.         0.         0.      
 sb                  0.         0.         0.         0.      
 sd                  0.         0.         0.         0.      
 saeff               0.         0.         0.         0.      
 sbeff               0.         0.         0.         0.      
  
  
                                                              
 element name       19:m1      19:m2      20:m1      20:m2    
 drain               2:net26    2:net26    2:net22    2:net22 
 gate                2:net14    2:net14    2:net8     2:net8  
 source              0:vdd!     0:0        0:vdd!     0:0     
 bulk                0:vdd!     0:0        0:vdd!     0:0     
 model               0:pmos     0:nmos     0:pmos     0:nmos  
 w eff             513.3300u   85.3200u  513.3300u   85.3200u 
 l eff              29.0000n   29.0000n   29.0000n   29.0000n 
 rd eff              0.         0.         0.         0.      
 rs eff              0.         0.         0.         0.      
 cdsat              42.2394f    7.0388f   42.2394f    7.0388f 
 cssat              42.2394f    7.0388f   42.2394f    7.0388f 
 capbd              34.9590f    5.8556f   34.9590f    5.8556f 
 capbs              28.1263f    4.7183f   28.1263f    4.7183f 
 temp               25.0000    25.0000    25.0000    25.0000  
 aic                                                          
 nf                  1.0000     1.0000     1.0000     1.0000  
 min                 0.         0.         0.         0.      
 rbdb               15.0000    15.0000    15.0000    15.0000  
 rbsb               15.0000    15.0000    15.0000    15.0000  
 rbpb                5.0000     5.0000     5.0000     5.0000  
 rbps               15.0000    15.0000    15.0000    15.0000  
 rbpd               15.0000    15.0000    15.0000    15.0000  
 trnqsmod            0.         0.         0.         0.      
 acnqsmod            0.         0.         0.         0.      
 rbodymod            1.0000     1.0000     1.0000     1.0000  
 rgatemod            1.0000     1.0000     1.0000     1.0000  
 geomod              0.         0.         0.         0.      
 rgeomod             0.         0.         0.         0.      
 delvto              0.         0.         0.         0.      
 mulu0               1.0000     1.0000     1.0000     1.0000  
 delk1               0.         0.         0.         0.      
 delnfct             0.         0.         0.         0.      
 deltox              0.         0.         0.         0.      
 sa                  0.         0.         0.         0.      
 sb                  0.         0.         0.         0.      
 sd                  0.         0.         0.         0.      
 saeff               0.         0.         0.         0.      
 sbeff               0.         0.         0.         0.      
  
  
                                                                 
 element name       21:m2       21:m0       21:m3      21:m1     
 drain               3:net057    3:net057   21:mid_a    3:net057 
 gate                0:net1      0:vdd!      0:net1     0:vdd!   
 source              0:vdd!      0:vdd!      0:0       21:mid_a  
 bulk                0:vdd!      0:vdd!      0:0        0:0      
 model               0:pmos      0:pmos      0:nmos     0:nmos   
 w eff             166.0000n   166.0000n   518.0000n  518.0000n  
 l eff              29.0000n    29.0000n    29.0000n   29.0000n  
 rd eff              0.          0.          0.         0.       
 rs eff              0.          0.          0.         0.       
 cdsat              15.1073a    15.1073a    44.0567a   44.0567a  
 cssat              15.1073a    15.1073a    44.0567a   44.0567a  
 capbd             223.4243a   223.4243a   582.4488a  582.4488a  
 capbs             188.2947a   188.2947a   477.0600a  477.0600a  
 temp               25.0000     25.0000     25.0000    25.0000   
 aic                                                             
 nf                  1.0000      1.0000      1.0000     1.0000   
 min                 0.          0.          0.         0.       
 rbdb               15.0000     15.0000     15.0000    15.0000   
 rbsb               15.0000     15.0000     15.0000    15.0000   
 rbpb                5.0000      5.0000      5.0000     5.0000   
 rbps               15.0000     15.0000     15.0000    15.0000   
 rbpd               15.0000     15.0000     15.0000    15.0000   
 trnqsmod            0.          0.          0.         0.       
 acnqsmod            0.          0.          0.         0.       
 rbodymod            1.0000      1.0000      1.0000     1.0000   
 rgatemod            1.0000      1.0000      1.0000     1.0000   
 geomod              0.          0.          0.         0.       
 rgeomod             0.          0.          0.         0.       
 delvto              0.          0.          0.         0.       
 mulu0               1.0000      1.0000      1.0000     1.0000   
 delk1               0.          0.          0.         0.       
 delnfct             0.          0.          0.         0.       
 deltox              0.          0.          0.         0.       
 sa                  0.          0.          0.         0.       
 sb                  0.          0.          0.         0.       
 sd                  0.          0.          0.         0.       
 saeff               0.          0.          0.         0.       
 sbeff               0.          0.          0.         0.       
  
  
                                                              
 element name       22:m2      22:m0      22:m3      22:m1    
 drain               3:net77    3:net77   22:mid_a    3:net77 
 gate                0:net2     0:vdd!     0:net2     0:vdd!  
 source              0:vdd!     0:vdd!     0:0       22:mid_a 
 bulk                0:vdd!     0:vdd!     0:0        0:0     
 model               0:pmos     0:pmos     0:nmos     0:nmos  
 w eff             166.0000n  166.0000n  518.0000n  518.0000n 
 l eff              29.0000n   29.0000n   29.0000n   29.0000n 
 rd eff              0.         0.         0.         0.      
 rs eff              0.         0.         0.         0.      
 cdsat              15.1073a   15.1073a   44.0567a   44.0567a 
 cssat              15.1073a   15.1073a   44.0567a   44.0567a 
 capbd             223.4243a  223.4243a  582.4488a  582.4488a 
 capbs             188.2947a  188.2947a  477.0600a  477.0600a 
 temp               25.0000    25.0000    25.0000    25.0000  
 aic                                                          
 nf                  1.0000     1.0000     1.0000     1.0000  
 min                 0.         0.         0.         0.      
 rbdb               15.0000    15.0000    15.0000    15.0000  
 rbsb               15.0000    15.0000    15.0000    15.0000  
 rbpb                5.0000     5.0000     5.0000     5.0000  
 rbps               15.0000    15.0000    15.0000    15.0000  
 rbpd               15.0000    15.0000    15.0000    15.0000  
 trnqsmod            0.         0.         0.         0.      
 acnqsmod            0.         0.         0.         0.      
 rbodymod            1.0000     1.0000     1.0000     1.0000  
 rgatemod            1.0000     1.0000     1.0000     1.0000  
 geomod              0.         0.         0.         0.      
 rgeomod             0.         0.         0.         0.      
 delvto              0.         0.         0.         0.      
 mulu0               1.0000     1.0000     1.0000     1.0000  
 delk1               0.         0.         0.         0.      
 delnfct             0.         0.         0.         0.      
 deltox              0.         0.         0.         0.      
 sa                  0.         0.         0.         0.      
 sb                  0.         0.         0.         0.      
 sd                  0.         0.         0.         0.      
 saeff               0.         0.         0.         0.      
 sbeff               0.         0.         0.         0.      
  
  
                                                                  
 element name       23:m1       23:m2       24:m1       24:m2     
 drain               3:net036    3:net036    3:net032    3:net032 
 gate                3:net057    3:net057    3:net77     3:net77  
 source              0:vdd!      0:0         0:vdd!      0:0      
 bulk                0:vdd!      0:0         0:vdd!      0:0      
 model               0:pmos      0:nmos      0:pmos      0:nmos   
 w eff               2.9160u   474.0000n     2.9160u   474.0000n  
 l eff              29.0000n    29.0000n    29.0000n    29.0000n  
 rd eff              0.          0.          0.          0.       
 rs eff              0.          0.          0.          0.       
 cdsat             241.2746a    40.4381a   241.2746a    40.4381a  
 cssat             241.2746a    40.4381a   241.2746a    40.4381a  
 capbd               3.0283f   537.5707a     3.0283f   537.5707a  
 capbs               2.4443f   440.9643a     2.4443f   440.9643a  
 temp               25.0000     25.0000     25.0000     25.0000   
 aic                                                              
 nf                  1.0000      1.0000      1.0000      1.0000   
 min                 0.          0.          0.          0.       
 rbdb               15.0000     15.0000     15.0000     15.0000   
 rbsb               15.0000     15.0000     15.0000     15.0000   
 rbpb                5.0000      5.0000      5.0000      5.0000   
 rbps               15.0000     15.0000     15.0000     15.0000   
 rbpd               15.0000     15.0000     15.0000     15.0000   
 trnqsmod            0.          0.          0.          0.       
 acnqsmod            0.          0.          0.          0.       
 rbodymod            1.0000      1.0000      1.0000      1.0000   
 rgatemod            1.0000      1.0000      1.0000      1.0000   
 geomod              0.          0.          0.          0.       
 rgeomod             0.          0.          0.          0.       
 delvto              0.          0.          0.          0.       
 mulu0               1.0000      1.0000      1.0000      1.0000   
 delk1               0.          0.          0.          0.       
 delnfct             0.          0.          0.          0.       
 deltox              0.          0.          0.          0.       
 sa                  0.          0.          0.          0.       
 sb                  0.          0.          0.          0.       
 sd                  0.          0.          0.          0.       
 saeff               0.          0.          0.          0.       
 sbeff               0.          0.          0.          0.       
  
  
                                                                  
 element name       25:m1       25:m2       26:m1       26:m2     
 drain               3:net052    3:net052    3:net046    3:net046 
 gate                3:net036    3:net036    3:net032    3:net032 
 source              0:vdd!      0:0         0:vdd!      0:0      
 bulk                0:vdd!      0:0         0:vdd!      0:0      
 model               0:pmos      0:nmos      0:pmos      0:nmos   
 w eff               3.0260u     6.0840u     3.0260u     6.0840u  
 l eff              29.0000n    29.0000n    29.0000n    29.0000n  
 rd eff              0.          0.          0.          0.       
 rs eff              0.          0.          0.          0.       
 cdsat             250.3213a   501.8193a   250.3213a   501.8193a  
 cssat             250.3213a   501.8193a   250.3213a   501.8193a  
 capbd               3.1405f     6.2595f     3.1405f     6.2595f  
 capbs               2.5345f     5.0432f     2.5345f     5.0432f  
 temp               25.0000     25.0000     25.0000     25.0000   
 aic                                                              
 nf                  1.0000      1.0000      1.0000      1.0000   
 min                 0.          0.          0.          0.       
 rbdb               15.0000     15.0000     15.0000     15.0000   
 rbsb               15.0000     15.0000     15.0000     15.0000   
 rbpb                5.0000      5.0000      5.0000      5.0000   
 rbps               15.0000     15.0000     15.0000     15.0000   
 rbpd               15.0000     15.0000     15.0000     15.0000   
 trnqsmod            0.          0.          0.          0.       
 acnqsmod            0.          0.          0.          0.       
 rbodymod            1.0000      1.0000      1.0000      1.0000   
 rgatemod            1.0000      1.0000      1.0000      1.0000   
 geomod              0.          0.          0.          0.       
 rgeomod             0.          0.          0.          0.       
 delvto              0.          0.          0.          0.       
 mulu0               1.0000      1.0000      1.0000      1.0000   
 delk1               0.          0.          0.          0.       
 delnfct             0.          0.          0.          0.       
 deltox              0.          0.          0.          0.       
 sa                  0.          0.          0.          0.       
 sb                  0.          0.          0.          0.       
 sd                  0.          0.          0.          0.       
 saeff               0.          0.          0.          0.       
 sbeff               0.          0.          0.          0.       
  
  
                                                              
 element name       27:m2      27:m0      27:m3      27:m1    
 drain               3:net55    3:net55   27:mid_a    3:net55 
 gate                0:net2     0:0        0:net2     0:0     
 source              0:vdd!     0:vdd!     0:0       27:mid_a 
 bulk                0:vdd!     0:vdd!     0:0        0:0     
 model               0:pmos     0:pmos     0:nmos     0:nmos  
 w eff             498.0000n  498.0000n    1.5540u    1.5540u 
 l eff              29.0000n   29.0000n   29.0000n   29.0000n 
 rd eff              0.         0.         0.         0.      
 rs eff              0.         0.         0.         0.      
 cdsat              45.3220a   45.3220a  132.1702a  132.1702a 
 cssat              45.3220a   45.3220a  132.1702a  132.1702a 
 capbd             223.4243a  223.4243a  582.4488a  582.4488a 
 capbs             188.2947a  188.2947a  477.0600a  477.0600a 
 temp               25.0000    25.0000    25.0000    25.0000  
 aic                                                          
 nf                  1.0000     1.0000     1.0000     1.0000  
 min                 0.         0.         0.         0.      
 rbdb               15.0000    15.0000    15.0000    15.0000  
 rbsb               15.0000    15.0000    15.0000    15.0000  
 rbpb                5.0000     5.0000     5.0000     5.0000  
 rbps               15.0000    15.0000    15.0000    15.0000  
 rbpd               15.0000    15.0000    15.0000    15.0000  
 trnqsmod            0.         0.         0.         0.      
 acnqsmod            0.         0.         0.         0.      
 rbodymod            1.0000     1.0000     1.0000     1.0000  
 rgatemod            1.0000     1.0000     1.0000     1.0000  
 geomod              0.         0.         0.         0.      
 rgeomod             0.         0.         0.         0.      
 delvto              0.         0.         0.         0.      
 mulu0               1.0000     1.0000     1.0000     1.0000  
 delk1               0.         0.         0.         0.      
 delnfct             0.         0.         0.         0.      
 deltox              0.         0.         0.         0.      
 sa                  0.         0.         0.         0.      
 sb                  0.         0.         0.         0.      
 sd                  0.         0.         0.         0.      
 saeff               0.         0.         0.         0.      
 sbeff               0.         0.         0.         0.      
  
  
                                                              
 element name       28:m2      28:m0      28:m3      28:m1    
 drain               3:net63    3:net63   28:mid_a    3:net63 
 gate                0:net1     0:0        0:net1     0:0     
 source              0:vdd!     0:vdd!     0:0       28:mid_a 
 bulk                0:vdd!     0:vdd!     0:0        0:0     
 model               0:pmos     0:pmos     0:nmos     0:nmos  
 w eff             498.0000n  498.0000n    1.5540u    1.5540u 
 l eff              29.0000n   29.0000n   29.0000n   29.0000n 
 rd eff              0.         0.         0.         0.      
 rs eff              0.         0.         0.         0.      
 cdsat              45.3220a   45.3220a  132.1702a  132.1702a 
 cssat              45.3220a   45.3220a  132.1702a  132.1702a 
 capbd             223.4243a  223.4243a  582.4488a  582.4488a 
 capbs             188.2947a  188.2947a  477.0600a  477.0600a 
 temp               25.0000    25.0000    25.0000    25.0000  
 aic                                                          
 nf                  1.0000     1.0000     1.0000     1.0000  
 min                 0.         0.         0.         0.      
 rbdb               15.0000    15.0000    15.0000    15.0000  
 rbsb               15.0000    15.0000    15.0000    15.0000  
 rbpb                5.0000     5.0000     5.0000     5.0000  
 rbps               15.0000    15.0000    15.0000    15.0000  
 rbpd               15.0000    15.0000    15.0000    15.0000  
 trnqsmod            0.         0.         0.         0.      
 acnqsmod            0.         0.         0.         0.      
 rbodymod            1.0000     1.0000     1.0000     1.0000  
 rgatemod            1.0000     1.0000     1.0000     1.0000  
 geomod              0.         0.         0.         0.      
 rgeomod             0.         0.         0.         0.      
 delvto              0.         0.         0.         0.      
 mulu0               1.0000     1.0000     1.0000     1.0000  
 delk1               0.         0.         0.         0.      
 delnfct             0.         0.         0.         0.      
 deltox              0.         0.         0.         0.      
 sa                  0.         0.         0.         0.      
 sb                  0.         0.         0.         0.      
 sd                  0.         0.         0.         0.      
 saeff               0.         0.         0.         0.      
 sbeff               0.         0.         0.         0.      
  
  
                                                                  
 element name       29:m1       29:m2       30:m1       30:m2     
 drain               3:net049    3:net049    3:net043    3:net043 
 gate                3:net69     3:net69     3:net73     3:net73  
 source              0:vdd!      0:0         0:vdd!      0:0      
 bulk                0:vdd!      0:0         0:vdd!      0:0      
 model               0:pmos      0:nmos      0:pmos      0:nmos   
 w eff               9.0780u    18.2520u     9.0780u    18.2520u  
 l eff              29.0000n    29.0000n    29.0000n    29.0000n  
 rd eff              0.          0.          0.          0.       
 rs eff              0.          0.          0.          0.       
 cdsat             750.9639a     1.5055f   750.9639a     1.5055f  
 cssat             750.9639a     1.5055f   750.9639a     1.5055f  
 capbd               3.1405f     6.2595f     3.1405f     6.2595f  
 capbs               2.5345f     5.0432f     2.5345f     5.0432f  
 temp               25.0000     25.0000     25.0000     25.0000   
 aic                                                              
 nf                  1.0000      1.0000      1.0000      1.0000   
 min                 0.          0.          0.          0.       
 rbdb               15.0000     15.0000     15.0000     15.0000   
 rbsb               15.0000     15.0000     15.0000     15.0000   
 rbpb                5.0000      5.0000      5.0000      5.0000   
 rbps               15.0000     15.0000     15.0000     15.0000   
 rbpd               15.0000     15.0000     15.0000     15.0000   
 trnqsmod            0.          0.          0.          0.       
 acnqsmod            0.          0.          0.          0.       
 rbodymod            1.0000      1.0000      1.0000      1.0000   
 rgatemod            1.0000      1.0000      1.0000      1.0000   
 geomod              0.          0.          0.          0.       
 rgeomod             0.          0.          0.          0.       
 delvto              0.          0.          0.          0.       
 mulu0               1.0000      1.0000      1.0000      1.0000   
 delk1               0.          0.          0.          0.       
 delnfct             0.          0.          0.          0.       
 deltox              0.          0.          0.          0.       
 sa                  0.          0.          0.          0.       
 sb                  0.          0.          0.          0.       
 sd                  0.          0.          0.          0.       
 saeff               0.          0.          0.          0.       
 sbeff               0.          0.          0.          0.       
  
  
                                                              
 element name       31:m1      31:m2      32:m1      32:m2    
 drain               3:net69    3:net69    3:net73    3:net73 
 gate                3:net55    3:net55    3:net63    3:net63 
 source              0:vdd!     0:0        0:vdd!     0:0     
 bulk                0:vdd!     0:0        0:vdd!     0:0     
 model               0:pmos     0:nmos     0:pmos     0:nmos  
 w eff               8.7480u    1.4220u    8.7480u    1.4220u 
 l eff              29.0000n   29.0000n   29.0000n   29.0000n 
 rd eff              0.         0.         0.         0.      
 rs eff              0.         0.         0.         0.      
 cdsat             723.8238a  121.3142a  723.8238a  121.3142a 
 cssat             723.8238a  121.3142a  723.8238a  121.3142a 
 capbd               3.0283f  537.5707a    3.0283f  537.5707a 
 capbs               2.4443f  440.9643a    2.4443f  440.9643a 
 temp               25.0000    25.0000    25.0000    25.0000  
 aic                                                          
 nf                  1.0000     1.0000     1.0000     1.0000  
 min                 0.         0.         0.         0.      
 rbdb               15.0000    15.0000    15.0000    15.0000  
 rbsb               15.0000    15.0000    15.0000    15.0000  
 rbpb                5.0000     5.0000     5.0000     5.0000  
 rbps               15.0000    15.0000    15.0000    15.0000  
 rbpd               15.0000    15.0000    15.0000    15.0000  
 trnqsmod            0.         0.         0.         0.      
 acnqsmod            0.         0.         0.         0.      
 rbodymod            1.0000     1.0000     1.0000     1.0000  
 rgatemod            1.0000     1.0000     1.0000     1.0000  
 geomod              0.         0.         0.         0.      
 rgeomod             0.         0.         0.         0.      
 delvto              0.         0.         0.         0.      
 mulu0               1.0000     1.0000     1.0000     1.0000  
 delk1               0.         0.         0.         0.      
 delnfct             0.         0.         0.         0.      
 deltox              0.         0.         0.         0.      
 sa                  0.         0.         0.         0.      
 sb                  0.         0.         0.         0.      
 sd                  0.         0.         0.         0.      
 saeff               0.         0.         0.         0.      
 sbeff               0.         0.         0.         0.      
  
  
                                                                  
 element name       33:m1       33:m2       34:m1       34:m2     
 drain               0:net17     0:net17     0:net14     0:net14  
 gate                3:net052    3:net052    3:net046    3:net046 
 source              0:vdd!      0:0         0:vdd!      0:0      
 bulk                0:vdd!      0:0         0:vdd!      0:0      
 model               0:pmos      0:nmos      0:pmos      0:nmos   
 w eff              48.6760u     8.1080u    48.6760u     8.1080u  
 l eff              29.0000n    29.0000n    29.0000n    29.0000n  
 rd eff              0.          0.          0.          0.       
 rs eff              0.          0.          0.          0.       
 cdsat               4.0047f   668.2784a     4.0047f   668.2784a  
 cssat               4.0047f   668.2784a     4.0047f   668.2784a  
 capbd              49.7015f     8.3239f    49.7015f     8.3239f  
 capbs              39.9838f     6.7036f    39.9838f     6.7036f  
 temp               25.0000     25.0000     25.0000     25.0000   
 aic                                                              
 nf                  1.0000      1.0000      1.0000      1.0000   
 min                 0.          0.          0.          0.       
 rbdb               15.0000     15.0000     15.0000     15.0000   
 rbsb               15.0000     15.0000     15.0000     15.0000   
 rbpb                5.0000      5.0000      5.0000      5.0000   
 rbps               15.0000     15.0000     15.0000     15.0000   
 rbpd               15.0000     15.0000     15.0000     15.0000   
 trnqsmod            0.          0.          0.          0.       
 acnqsmod            0.          0.          0.          0.       
 rbodymod            1.0000      1.0000      1.0000      1.0000   
 rgatemod            1.0000      1.0000      1.0000      1.0000   
 geomod              0.          0.          0.          0.       
 rgeomod             0.          0.          0.          0.       
 delvto              0.          0.          0.          0.       
 mulu0               1.0000      1.0000      1.0000      1.0000   
 delk1               0.          0.          0.          0.       
 delnfct             0.          0.          0.          0.       
 deltox              0.          0.          0.          0.       
 sa                  0.          0.          0.          0.       
 sb                  0.          0.          0.          0.       
 sd                  0.          0.          0.          0.       
 saeff               0.          0.          0.          0.       
 sbeff               0.          0.          0.          0.       
  
  
                                                                  
 element name       35:m1       35:m2       36:m1       36:m2     
 drain               3:net028    3:net028    3:net024    3:net024 
 gate                3:net049    3:net049    3:net043    3:net043 
 source              0:vdd!      0:0         0:vdd!      0:0      
 bulk                0:vdd!      0:0         0:vdd!      0:0      
 model               0:pmos      0:nmos      0:pmos      0:nmos   
 w eff             146.0280u    24.3240u   146.0280u    24.3240u  
 l eff              29.0000n    29.0000n    29.0000n    29.0000n  
 rd eff              0.          0.          0.          0.       
 rs eff              0.          0.          0.          0.       
 cdsat              12.0141f     2.0048f    12.0141f     2.0048f  
 cssat              12.0141f     2.0048f    12.0141f     2.0048f  
 capbd              49.7015f     8.3239f    49.7015f     8.3239f  
 capbs              39.9838f     6.7036f    39.9838f     6.7036f  
 temp               25.0000     25.0000     25.0000     25.0000   
 aic                                                              
 nf                  1.0000      1.0000      1.0000      1.0000   
 min                 0.          0.          0.          0.       
 rbdb               15.0000     15.0000     15.0000     15.0000   
 rbsb               15.0000     15.0000     15.0000     15.0000   
 rbpb                5.0000      5.0000      5.0000      5.0000   
 rbps               15.0000     15.0000     15.0000     15.0000   
 rbpd               15.0000     15.0000     15.0000     15.0000   
 trnqsmod            0.          0.          0.          0.       
 acnqsmod            0.          0.          0.          0.       
 rbodymod            1.0000      1.0000      1.0000      1.0000   
 rgatemod            1.0000      1.0000      1.0000      1.0000   
 geomod              0.          0.          0.          0.       
 rgeomod             0.          0.          0.          0.       
 delvto              0.          0.          0.          0.       
 mulu0               1.0000      1.0000      1.0000      1.0000   
 delk1               0.          0.          0.          0.       
 delnfct             0.          0.          0.          0.       
 deltox              0.          0.          0.          0.       
 sa                  0.          0.          0.          0.       
 sb                  0.          0.          0.          0.       
 sd                  0.          0.          0.          0.       
 saeff               0.          0.          0.          0.       
 sbeff               0.          0.          0.          0.       
  
  
                                                                  
 element name       37:m5       37:m1       37:m0       37:m4     
 drain               0:bl63      0:bl63      0:bl_b63   37:net23  
 gate                0:blpc_b    0:blpc_b    0:blpc_b    0:0      
 source              0:vdd!      0:bl_b63    0:vdd!      0:bl_b63 
 bulk                0:vdd!      0:vdd!      0:vdd!      0:0      
[...]
    2.07400n      6.5504n  
    2.07500n      6.3842n  
    2.07600n      6.1255n  
    2.07700n      5.8667n  
    2.07800n      5.6080n  
    2.07900n      5.3632n  
    2.08000n      5.8224n  
    2.08100n      6.2816n  
    2.08200n      6.7408n  
    2.08300n      7.3786n  
    2.08400n      8.1636n  
    2.08500n      8.9485n  
    2.08600n      9.6536n  
    2.08700n      9.4080n  
    2.08800n      9.1624n  
    2.08900n      8.9168n  
    2.09000n      8.4911n  
    2.09100n      7.6334n  
    2.09200n      6.7757n  
    2.09300n      5.9180n  
    2.09400n      5.6526n  
    2.09500n      5.9544n  
    2.09600n      6.2562n  
    2.09700n      6.5580n  
    2.09800n      6.8598n  
    2.09900n      7.1616n  
    2.10000n      7.4634n  
    2.10100n      8.4577n  
    2.10200n      7.0174n  
    2.10300n      1.5987n  
    2.10400n      4.7333n  
    2.10500n      7.8678n  
    2.10600n      9.5885n  
    2.10700n      8.1615n  
    2.10800n      6.7345n  
    2.10900n      5.3075n  
    2.11000n      3.8805n  
    2.11100n      2.4535n  
    2.11200n      1.0265n  
    2.11300n   -400.4861p  
    2.11400n    615.9981p  
    2.11500n      1.9859n  
    2.11600n      3.3558n  
    2.11700n      4.7258n  
    2.11800n      6.0957n  
    2.11900n      7.4656n  
    2.12000n      8.6469n  
    2.12100n      8.4554n  
    2.12200n      8.2639n  
    2.12300n      8.0724n  
    2.12400n      7.8809n  
    2.12500n      7.6893n  
    2.12600n      6.1996n  
    2.12700n      4.6553n  
    2.12800n      3.1109n  
    2.12900n      1.5666n  
    2.13000n     22.2077p  
    2.13100n    505.7085p  
    2.13200n      1.5010n  
    2.13300n      2.4963n  
    2.13400n      3.4916n  
    2.13500n      4.4868n  
    2.13600n      5.4821n  
    2.13700n      6.4774n  
    2.13800n      7.4727n  
    2.13900n      8.4680n  
    2.14000n      8.5985n  
    2.14100n      7.7009n  
    2.14200n      6.8032n  
    2.14300n      5.9056n  
    2.14400n      5.0080n  
    2.14500n      4.1103n  
    2.14600n      3.2127n  
    2.14700n      2.3151n  
    2.14800n      1.4175n  
    2.14900n    519.8238p  
    2.15000n    897.7083p  
    2.15100n      2.0516n  
    2.15200n      3.2054n  
    2.15300n      4.3593n  
    2.15400n      5.5131n  
    2.15500n      6.6670n  
    2.15600n      7.8208n  
    2.15700n      8.9747n  
    2.15800n      8.8453n  
    2.15900n      7.7876n  
    2.16000n      6.7298n  
    2.16100n      5.6721n  
    2.16200n      4.6143n  
    2.16300n      3.5566n  
    2.16400n      2.4989n  
    2.16500n      1.4411n  
    2.16600n    383.3864p  
    2.16700n      2.1411n  
    2.16800n      4.3248n  
    2.16900n      6.5085n  
    2.17000n      8.6922n  
    2.17100n      8.9001n  
    2.17200n      7.9597n  
    2.17300n      7.0193n  
    2.17400n      6.0789n  
    2.17500n      5.1385n  
    2.17600n      4.1981n  
    2.17700n      3.2576n  
    2.17800n      2.3172n  
    2.17900n      1.3768n  
    2.18000n    767.8271p  
    2.18100n      2.0246n  
    2.18200n      3.2814n  
    2.18300n      4.5382n  
    2.18400n      5.7951n  
    2.18500n      7.0519n  
    2.18600n      8.3087n  
    2.18700n      9.5655n  
    2.18800n      7.0024n  
    2.18900n      3.7328n  
    2.19000n    463.2679p  
    2.19100n      4.2160n  
    2.19200n      7.4922n  
    2.19300n      3.0916n  
    2.19400n      2.6376n  
    2.19500n      4.5494n  
    2.19600n      6.4612n  
    2.19700n      8.3730n  
    2.19800n      8.6175n  
    2.19900n      5.6956n  
    2.20000n      2.7738n  
    2.20100n   -148.1335p  
    2.20200n    369.7082p  
    2.20300n      3.7176n  
    2.20400n      7.0656n  
    2.20500n     10.4135n  
    2.20600n     13.0710n  
    2.20700n      9.6504n  
    2.20800n      6.2297n  
    2.20900n      2.8091n  
    2.21000n   -611.5784p  
    2.21100n     -4.0078n  
    2.21200n      4.1436n  
    2.21300n     12.2950n  
    2.21400n     11.3442n  
    2.21500n      9.0078n  
    2.21600n      6.6715n  
    2.21700n      4.3351n  
    2.21800n      1.9987n  
    2.21900n   -337.6382p  
    2.22000n   -157.2236p  
    2.22100n      2.2802n  
    2.22200n      4.7175n  
    2.22300n      7.1549n  
    2.22400n      9.5923n  
    2.22500n      9.9339n  
    2.22600n      8.4566n  
    2.22700n      6.9792n  
    2.22800n      5.5019n  
    2.22900n      4.0245n  
    2.23000n      2.5472n  
    2.23100n      1.0698n  
    2.23200n      1.8240n  
    2.23300n      3.1164n  
    2.23400n      4.4088n  
    2.23500n      5.7012n  
    2.23600n      6.9936n  
    2.23700n      8.2860n  
    2.23800n      8.6419n  
    2.23900n      7.8644n  
    2.24000n      7.0870n  
    2.24100n      6.3095n  
    2.24200n      5.5320n  
    2.24300n      4.7546n  
    2.24400n      3.9771n  
    2.24500n      3.1996n  
    2.24600n      2.4221n  
    2.24700n      2.7727n  
    2.24800n      3.2787n  
    2.24900n      3.7847n  
    2.25000n      4.2908n  
    2.25100n      4.7968n  
    2.25200n      5.3028n  
    2.25300n      5.8088n  
    2.25400n      6.3149n  
    2.25500n      6.8209n  
    2.25600n      7.3269n  
    2.25700n      7.0758n  
    2.25800n      6.7843n  
    2.25900n      6.4928n  
    2.26000n      6.2012n  
    2.26100n      5.9097n  
    2.26200n      5.6182n  
    2.26300n      5.3267n  
    2.26400n      5.0351n  
    2.26500n      4.7436n  
    2.26600n      4.4521n  
    2.26700n      4.2600n  
    2.26800n      4.5208n  
    2.26900n      4.7817n  
    2.27000n      5.0425n  
    2.27100n      5.3033n  
    2.27200n      5.5642n  
    2.27300n      5.8250n  
    2.27400n      6.0859n  
    2.27500n      6.3467n  
    2.27600n      6.6076n  
    2.27700n      6.2031n  
    2.27800n      5.7865n  
    2.27900n      5.3699n  
    2.28000n      4.9533n  
    2.28100n      4.5366n  
    2.28200n      4.1200n  
    2.28300n      3.7034n  
    2.28400n      3.2868n  
    2.28500n      3.5105n  
    2.28600n      4.1759n  
    2.28700n      4.8413n  
    2.28800n      5.5066n  
    2.28900n      6.1720n  
    2.29000n      6.8374n  
    2.29100n      7.5028n  
    2.29200n      8.1682n  
    2.29300n      8.8335n  
    2.29400n      8.9792n  
    2.29500n      8.3134n  
    2.29600n      7.6477n  
    2.29700n      6.9819n  
    2.29800n      6.3161n  
    2.29900n      5.6503n  
    2.30000n      4.9845n  
    2.30100n      4.3187n  
    2.30200n      3.6529n  
    2.30300n      3.4610n  
    2.30400n      3.8175n  
    2.30500n      4.1740n  
    2.30600n      4.5306n  
    2.30700n      4.8871n  
    2.30800n      5.2436n  
    2.30900n      5.6002n  
    2.31000n      5.9567n  
    2.31100n      6.3132n  
    2.31200n      3.1454n  
    2.31300n    715.3866p  
    2.31400n      2.6100n  
    2.31500n      4.5046n  
    2.31600n      6.3993n  
    2.31700n      8.2939n  
    2.31800n     10.1885n  
    2.31900n      9.0255n  
    2.32000n      6.5387n  
    2.32100n      4.0519n  
    2.32200n      1.5651n  
    2.32300n      2.3098n  
    2.32400n      4.7401n  
    2.32500n      7.1703n  
    2.32600n      9.6006n  
    2.32700n      9.1092n  
    2.32800n      6.5440n  
    2.32900n      3.9787n  
    2.33000n      1.4135n  
    2.33100n      1.7997n  
    2.33200n      3.4667n  
    2.33300n      5.1338n  
    2.33400n      6.8008n  
    2.33500n      8.4679n  
    2.33600n     10.1349n  
    2.33700n      9.3588n  
    2.33800n      7.8880n  
    2.33900n      6.4172n  
    2.34000n      4.9464n  
    2.34100n      3.4757n  
    2.34200n      2.0049n  
    2.34300n    794.3220p  
    2.34400n      2.0676n  
    2.34500n      3.3408n  
    2.34600n      4.6141n  
    2.34700n      5.8874n  
    2.34800n      7.1606n  
    2.34900n      8.4339n  
    2.35000n      9.7071n  
    2.35100n      9.9571n  
    2.35200n      8.0566n  
    2.35300n      6.1560n  
    2.35400n      4.2554n  
    2.35500n      2.3549n  
    2.35600n    454.3295p  
    2.35700n     -1.4462n  
    2.35800n    318.2147p  
    2.35900n      2.2206n  
    2.36000n      4.1229n  
    2.36100n      6.0253n  
    2.36200n      7.9276n  
    2.36300n      9.8300n  
    2.36400n     11.7323n  
    2.36500n     10.3329n  
    2.36600n      8.7152n  
    2.36700n      7.0976n  
    2.36800n      5.4799n  
    2.36900n      3.8622n  
    2.37000n      2.2446n  
    2.37100n    626.9147p  
    2.37200n   -690.7287p  
    2.37300n    512.6348p  
    2.37400n      1.7160n  
    2.37500n      2.9194n  
    2.37600n      4.1227n  
    2.37700n      5.3261n  
    2.37800n      6.5295n  
    2.37900n      7.7328n  
    2.38000n      8.9362n  
    2.38100n     10.1395n  
    2.38200n     11.3429n  
    2.38300n     10.3954n  
    2.38400n      8.8325n  
    2.38500n      7.2695n  
    2.38600n      5.7066n  
    2.38700n      4.1437n  
    2.38800n      2.5808n  
    2.38900n      1.0178n  
    2.39000n   -545.0745p  
    2.39100n    386.5056p  
    2.39200n      1.7367n  
    2.39300n      3.0869n  
    2.39400n      4.4371n  
    2.39500n      5.7872n  
    2.39600n      7.1374n  
    2.39700n      8.4876n  
    2.39800n      9.8378n  
    2.39900n     11.1880n  
    2.40000n      8.2144n  
    2.40100n      3.5590n  
    2.40200n     -1.0964n  
    2.40300n     -1.1896n  
    2.40400n    527.6978p  
    2.40500n      2.2450n  
    2.40600n      3.9623n  
    2.40700n      5.6795n  
    2.40800n      7.3968n  
    2.40900n      9.1141n  
    2.41000n     10.8314n  
    2.41100n     12.5487n  
    2.41200n      8.2585n  
    2.41300n      2.5584n  
    2.41400n     -1.5011n  
    2.41500n      5.5744n  
    2.41600n     12.6498n  
    2.41700n     10.4545n  
    2.41800n      8.1012n  
    2.41900n      5.7479n  
    2.42000n      3.3945n  
    2.42100n      1.0412n  
    2.42200n     -1.3122n  
    2.42300n   -391.5058p  
    2.42400n      2.3309n  
    2.42500n      5.0533n  
    2.42600n      7.7757n  
    2.42700n     10.4981n  
    2.42800n     12.5730n  
    2.42900n      9.2667n  
    2.43000n      5.9604n  
    2.43100n      2.6542n  
    2.43200n   -652.1324p  
    2.43300n   -677.0974p  
    2.43400n      2.4784n  
    2.43500n      5.6338n  
    2.43600n      8.7893n  
    2.43700n     11.9447n  
    2.43800n     11.4035n  
    2.43900n      9.2435n  
    2.44000n      7.0834n  
    2.44100n      4.9234n  
    2.44200n      2.7633n  
    2.44300n    603.2708p  
    2.44400n     -1.5568n  
    2.44500n   -821.5140p  
    2.44600n      1.5308n  
    2.44700n      3.8831n  
    2.44800n      6.2355n  
    2.44900n      8.5878n  
    2.45000n     10.9401n  
    2.45100n     12.4216n  
    2.45200n      9.9637n  
    2.45300n      7.5058n  
    2.45400n      5.0479n  
    2.45500n      2.5900n  
    2.45600n    132.1336p  
    2.45700n     -2.2309n  
    2.45800n    122.7343p  
    2.45900n      2.4764n  
    2.46000n      4.8300n  
    2.46100n      7.1836n  
    2.46200n      9.5373n  
    2.46300n     11.8909n  
    2.46400n     12.0495n  
    2.46500n     10.0536n  
    2.46600n      8.0577n  
    2.46700n      6.0617n  
    2.46800n      4.0658n  
    2.46900n      2.0699n  
    2.47000n     73.9163p  
    2.47100n     -1.9220n  
    2.47200n     -1.3324n  
    2.47300n   -668.7963p  
    2.47400n     -5.1497p  
    2.47500n    658.4970p  
    2.47600n      2.0196n  
    2.47700n      4.7075n  
    2.47800n      7.3954n  
    2.47900n     10.0832n  
    2.48000n     12.7711n  
    2.48100n      9.1641n  
    2.48200n      3.0715n  
    2.48300n     -2.1619n  
    2.48400n   -218.0489p  
    2.48500n      1.7258n  
    2.48600n      3.6697n  
    2.48700n      5.6136n  
    2.48800n      7.5575n  
    2.48900n      9.5014n  
    2.49000n     11.4452n  
    2.49100n     13.3891n  
    2.49200n     12.4983n  
    2.49300n     10.6868n  
    2.49400n      8.8753n  
    2.49500n      5.8398n  
    2.49600n      1.9660n  
    2.49700n     -1.9077n  
    2.49800n    -89.8677p  
    2.49900n      9.2051n  
    2.50000n     18.5001n  
    2.50100n      6.1261n  
    2.50200n      6.3519n  
    2.50300n      6.8822n  
    2.50400n      6.7769n  
    2.50500n      6.6716n  
    2.50600n      6.5023n  
    2.50700n      6.2834n  
    2.50800n      6.0645n  
    2.50900n      5.8456n  
    2.51000n      5.5956n  
    2.51100n      2.5460n  
    2.51200n    984.1528p  
    2.51300n      2.9205n  
    2.51400n      4.8568n  
    2.51500n      6.7932n  
    2.51600n      8.7295n  
    2.51700n     10.6659n  
    2.51800n      9.0291n  
    2.51900n      6.5975n  
    2.52000n      4.1659n  
    2.52100n      1.7343n  
    2.52200n      1.7720n  
    2.52300n      3.5946n  
    2.52400n      5.4173n  
    2.52500n      7.2400n  
    2.52600n      9.0627n  
    2.52700n      8.5202n  
    2.52800n      7.6356n  
    2.52900n      5.6902n  
    2.53000n      3.0430n  
    2.53100n      1.7580n  
    2.53200n      3.2392n  
    2.53300n      5.5161n  
    2.53400n      8.9242n  
    2.53500n      9.9910n  
    2.53600n      8.6787n  
    2.53700n      6.0981n  
    2.53800n      2.2064n  
    2.53900n      1.5821n  
    2.54000n      4.3935n  
    2.54100n      7.2049n  
    2.54200n     10.0162n  
    2.54300n      7.8118n  
    2.54400n      4.3805n  
    2.54500n    949.1190p  
    2.54600n    387.2929p  
    2.54700n      4.0583n  
    2.54800n      7.7293n  
    2.54900n      8.4485n  
    2.55000n      2.6775n  
    2.55100n      4.7507n  
    2.55200n      4.5907n  
    2.55300n      8.1333n  
    2.55400n      6.6165n  
    2.55500n      1.0138n  
    2.55600n      3.9307n  
    2.55700n      4.4975n  
    2.55800n      4.6464n  
    2.55900n      4.5184n  
    2.56000n      4.4522n  
    2.56100n      4.4210n  
    2.56200n      4.3974n  
    2.56300n      4.3814n  
    2.56400n      6.3775n  
    2.56500n      9.1587n  
    2.56600n      7.5093n  
    2.56700n      3.2589n  
    2.56800n      5.1418n  
    2.56900n      8.0910n  
    2.57000n      6.7656n  
    2.57100n      5.4402n  
    2.57200n      6.5693n  
    2.57300n      7.9721n  
    2.57400n      7.6686n  
    2.57500n      5.1496n  
    2.57600n      2.6307n  
    2.57700n      3.9685n  
    2.57800n      6.0167n  
    2.57900n      6.7618n  
    2.58000n      4.2074n  
    2.58100n      1.7023n  
    2.58200n      4.5908n  
    2.58300n      7.3451n  
    2.58400n      7.9314n  
    2.58500n      8.4454n  
    2.58600n      8.6112n  
    2.58700n      8.7674n  
    2.58800n      6.3721n  
    2.58900n      3.9767n  
    2.59000n      5.2088n  
    2.59100n      6.7731n  
    2.59200n      4.9483n  
    2.59300n      2.7655n  
    2.59400n      4.0184n  
    2.59500n      4.5336n  
    2.59600n      4.4924n  
    2.59700n      4.8210n  
    2.59800n      4.6969n  
    2.59900n      4.6152n  
    2.60000n      4.5730n  
    2.60100n      4.5148n  
    2.60200n      4.4973n  
    2.60300n      4.5022n  
    2.60400n      4.4807n  
    2.60500n      4.4451n  
    2.60600n      4.6357n  
    2.60700n      5.5913n  
    2.60800n      6.5469n  
    2.60900n      7.5025n  
    2.61000n      7.6902n  
    2.61100n      7.0200n  
    2.61200n      6.3497n  
    2.61300n      5.6794n  
    2.61400n      5.3907n  
    2.61500n      5.2530n  
    2.61600n      5.1154n  
    2.61700n      4.9303n  
    2.61800n      4.6874n  
    2.61900n     30.0546n  
    2.62000n      4.9114n  
    2.62100n      4.7202n  
    2.62200n      4.5996n  
    2.62300n      4.5213n  
    2.62400n      4.4510n  
    2.62500n      4.4304n  
    2.62600n      4.9247n  
    2.62700n      7.7534n  
    2.62800n     10.5820n  
    2.62900n      8.7135n  
    2.63000n      6.7605n  
    2.63100n      5.8597n  
    2.63200n      5.6114n  
    2.63300n      5.0617n  
    2.63400n      4.2265n  
    2.63500n      4.8908n  
    2.63600n      5.4032n  
    2.63700n      5.1462n  
    2.63800n      4.5439n  
    2.63900n      5.0742n  
    2.64000n      5.8015n  
    2.64100n      5.5138n  
    2.64200n      4.9592n  
    2.64300n      5.4118n  
    2.64400n      5.8645n  
    2.64500n      5.6239n  
    2.64600n      5.1502n  
    2.64700n      4.9362n  
    2.64800n      5.3710n  
    2.64900n      5.8058n  
    2.65000n      5.5694n  
    2.65100n      5.2350n  
    2.65200n      4.9006n  
    2.65300n      4.7524n  
    2.65400n      4.8856n  
    2.65500n      5.2526n  
    2.65600n      5.7653n  
    2.65700n      6.6546n  
    2.65800n      7.8426n  
    2.65900n      7.6301n  
    2.66000n      5.6118n  
    2.66100n      1.8887n  
    2.66200n      7.2389n  
    2.66300n     11.3760n  
    2.66400n      6.0229n  
    2.66500n    669.6901p  
    2.66600n     -1.1887n  
    2.66700n      4.2742n  
    2.66800n      9.7371n  
    2.66900n      9.5703n  
    2.67000n      5.1161n  
    2.67100n    661.8575p  
    2.67200n     -2.7870n  
    2.67300n      2.2391n  
    2.67400n      7.2653n  
    2.67500n     12.2914n  
    2.67600n     14.2654n  
    2.67700n     10.5300n  
    2.67800n      6.7946n  
    2.67900n      3.0591n  
    2.68000n   -676.2782p  
    2.68100n   -554.4674p  
    2.68200n      2.2620n  
    2.68300n      5.0785n  
    2.68400n      7.8950n  
    2.68500n     10.7115n  
    2.68600n     13.5280n  
    2.68700n     12.6968n  
    2.68800n     10.4588n  
    2.68900n      8.2208n  
    2.69000n      5.9828n  
    2.69100n      3.7449n  
    2.69200n      1.5069n  
    2.69300n   -731.1197p  
    2.69400n     -2.9691n  
    2.69500n   -572.8410p  
    2.69600n      2.1362n  
    2.69700n      4.8453n  
    2.69800n      7.5544n  
    2.69900n     10.2634n  
    2.70000n     12.9725n  
y
 read_1_r0_diff_delay= 270.4593p  targ= 795.4593p   trig= 525.0000p
 read_0_r0_diff_delay= 277.1452p  targ= 802.1452p   trig= 525.0000p
 wl0_delay_r= 124.5256p  targ= 649.5256p   trig= 525.0000p
 wl0_delay_f= 439.2391p  targ=   1.5142n   trig=   1.0750n
 read_0_r255_diff_delay= 282.2745p  targ=   1.8073n   trig=   1.5250n
 read_1_r255_diff_delay= 272.6009p  targ=   1.7976n   trig=   1.5250n
 wl255_delay_r= 124.5446p  targ=   1.6495n   trig=   1.5250n
 wl255_delay_f= 439.2141p  targ=   2.5142n   trig=   2.0750n

          ***** job concluded
1****** HSPICE -- F-2011.09-SP2 32-BIT (Feb 27 2012) linux ******               
 ******  
 ee-313 sense amplifier analysis

  ******  job statistics summary tnom=  25.000 temp=  27.000 *****
  
  
 ******  Machine Information  ******
 CPU:
 model name	: Quad-Core AMD Opteron(tm) Processor 2384
 cpu MHz	: 800.000
  
 OS:
 Linux version 3.2.0-36-generic (buildd@allspice) (gcc version 4.6.3 (Ubuntu/Lin
 aro 4.6.3-1ubuntu5) ) #57-Ubuntu SMP Tue Jan 8 21:44:52 UTC 2013


  ******  HSPICE Threads Information  ******

  Command Line Threads Count :     1
  Available CPU Count        :     8
  Actual Threads Count       :     1


  ******  Circuit Statistics  ******
  # nodes       =     820 # elements   =     216
  # resistors   =       1 # capacitors =      26 # inductors   =       0
  # mutual_inds =       0 # vccs       =       0 # vcvs        =       0
  # cccs        =       0 # ccvs       =       0 # volt_srcs   =       6
  # curr_srcs   =       0 # diodes     =       0 # bjts        =       0
  # jfets       =       0 # mosfets    =     183 # U elements  =       0
  # T elements  =       0 # W elements =       0 # B elements  =       0
  # S elements  =       0 # P elements =       0 # va device   =       0
  # vector_srcs =       0


  ******  Runtime Statistics (seconds)  ******

  analysis           time    # points   tot. iter  conv.iter
  op point           0.02           1          20
  transient          1.22        2701        3679         602 rev=        84
  readin             0.02
  errchk             0.04
  setup              0.02
  output             0.02


           peak memory used         91.09 megabytes
           total cpu time            1.34 seconds
           total elapsed time        1.64 seconds
           job started at     20:45:38 02/27/2013
           job ended   at     20:45:39 02/27/2013


 lic: Release hspice token(s) 
