$DATA1 SOURCE='HSPICE' VERSION='F-2011.09-SP2 32-BIT'
.TITLE 'ee-313 sense amplifier analysis'
 read_1_r0_diff_delay read_0_r0_diff_delay wl0_delay_r       
 wl0_delay_f      read_0_r255_diff_delay read_1_r255_diff_delay  
 wl255_delay_r    wl255_delay_f    temper           alter#            
  2.705e-10        2.771e-10        1.245e-10        4.392e-10        
  2.823e-10        2.726e-10        1.245e-10        4.392e-10        
   27.0000        1                 
