Using: /usr/class/ee/synopsys/hspice/F-2011.09-SP2/hspice/linux/hspice task3.sp
 ****** HSPICE -- F-2011.09-SP2 32-BIT (Feb 27 2012) linux ******               
  Copyright (C) 2011 Synopsys, Inc. All Rights Reserved.                        
  Unpublished-rights reserved under US copyright laws.
  This program is protected by law and is subject to the
  terms and conditions of the license agreement from Synopsys.
  Use of this program is your acceptance to be bound by the
  license agreement. HSPICE is the trademark of Synopsys, Inc.
  Input File: task3.sp                                                          
  Command line options: task3.sp
 lic:  
 lic: FLEXlm: v10.8 
 lic: USER:   ronaldv              HOSTNAME: corn23.stanford.edu 
 lic: HOSTID: 001b213a6419         PID:      14579 
 lic: Using FLEXlm license file: 
 lic: 27000@cadlic0.stanford.edu 
 lic: Checkout 1 hspice 
 lic: License/Maintenance for hspice will expire on 16-nov-2013/2012.06 
 lic: 2(in_use)/100(total) FLOATING license(s) on SERVER cadlic0.stanford.edu 
 lic:   
 Init: read install configuration file: /usr/class/ee/synopsys/hspice/F-2011.09-SP2/hspice/meta.cfg

 **warning**  runlvl smaller than 5, reset to 5  when accurate turned on
 scientific notation:
 a=10**-18  f=10**-15  p=10**-12  n=10**-9  u=10**-6
 m=10**-3   k=10**3    x=10**6    g=10**9 
  **warning** (./schem.task3.ckt:229) Global net name, "vdd", in subckt pin list. The pin will be connected to the local net. Recommend to not use global net names in subckt pin lists.

 **warning**  runlvl smaller than 5, reset to 5  when accurate turned on
1****** HSPICE -- F-2011.09-SP2 32-BIT (Feb 27 2012) linux ******               
 ******  
 ee-313 sense amplifier analysis

  ******  circuit name directory
 circuit number to circuit name directory
   number circuitname                     definition         multiplier
        0 main circuit
        1 xi5.                            predecode_24       1.00 
        2 xi4.                            predecode_416      1.00 
        3 xi1.                            decode_stage       1.00 
        4 xisram.                         sram               1.00 
        5 xi5.xi36.                       nand3              1.00 
        6 xi5.xi37.                       nand3              1.00 
        7 xi5.xi38.                       nand3              1.00 
        8 xi5.xi39.                       nand3              1.00 
        9 xi5.xu3.                        inv_pcell_0        1.00 
       10 xi5.xu2.                        inv_pcell_0        1.00 
       11 xi5.xu1.                        inv_pcell_0        1.00 
       12 xi5.xu0.                        inv_pcell_0        1.00 
       13 xi4.xi15.                       nand_pcell_5       1.00 
       14 xi4.xi17.                       nand_pcell_5       1.00 
       15 xi4.xu0.                        inv_pcell_6        1.00 
       16 xi4.xu2.                        inv_pcell_6        1.00 
       17 xi4.xu1.                        inv_pcell_7        1.00 
       18 xi4.xu3.                        inv_pcell_7        1.00 
       19 xi4.xi16.                       nand_pcell_8       1.00 
       20 xi4.xi18.                       nand_pcell_8       1.00 
       21 xi4.xu15.                       inv_pcell_9        1.00 
       22 xi4.xu13.                       inv_pcell_9        1.00 
       23 xi4.xu10.                       inv_pcell_10       1.00 
       24 xi4.xu8.                        inv_pcell_10       1.00 
       25 xi4.xu14.                       inv_pcell_11       1.00 
       26 xi4.xu12.                       inv_pcell_11       1.00 
       27 xi4.xu11.                       inv_pcell_12       1.00 
       28 xi4.xu9.                        inv_pcell_12       1.00 
       29 xi1.xu2.                        nand_pcell_1       1.00 
       30 xi1.xu0.                        nand_pcell_1       1.00 
       31 xi1.xu3.                        nand_pcell_2       1.00 
       32 xi1.xu1.                        nand_pcell_2       1.00 
       33 xi1.xu7.                        inv_pcell_3        1.00 
       34 xi1.xu5.                        inv_pcell_3        1.00 
       35 xi1.xu8.                        inv_pcell_4        1.00 
       36 xi1.xu6.                        inv_pcell_4        1.00 
       37 xisram.xi16.                    write              1.00 
       38 xisram.xi17.                    write            254.00 
       39 xisram.xi14.                    write              1.00 
       40 xisram.xibottom_right.          mc                 1.00 
       41 xisram.xi13.                    mc               254.00 
       42 xisram.xibottom_left.           mc                 1.00 
       43 xisram.xi11.                    mc               254.00 
       44 xisram.xi10.                    mc                64.52k
       45 xisram.xi12.                    mc               254.00 
       46 xisram.xitop_right.             mc                 1.00 
       47 xisram.xi9.                     mc               254.00 
       48 xisram.xitop_left.              mc                 1.00 
       49 xisram.xi16.xu0.                inv_pcell_13       1.00 
       50 xisram.xi16.xu2.                inv_pcell_14       1.00 
       51 xisram.xi16.xu1.                inv_pcell_14       1.00 
       52 xisram.xi17.xu0.                inv_pcell_13     254.00 
       53 xisram.xi17.xu2.                inv_pcell_14     254.00 
       54 xisram.xi17.xu1.                inv_pcell_14     254.00 
       55 xisram.xi14.xu0.                inv_pcell_13       1.00 
       56 xisram.xi14.xu2.                inv_pcell_14       1.00 
       57 xisram.xi14.xu1.                inv_pcell_14       1.00 


 circuit parameter definitions
  parameter          =  value 

     0:supply                                                  =   1.0000       
     0:s1_wn                                                   =   9.0000       
     0:s1_wp                                                   =   3.0000       
     0:s2_wn                                                   =   7.0000       
     0:s2_wp                                                   =  41.0000       
     0:s3_wn                                                   =  24.0000       
     0:s3_wp                                                   =   8.0000       
     0:s4_wn                                                   =  22.0000       
     0:s4_wp                                                   = 133.0000       
     0:s5_wn                                                   = 277.0000       
     0:s5_wp                                                   = 138.0000       
     0:s6_wn                                                   = 369.0000       
     0:s6_wp                                                   =   2.2130k      
     0:s7_wn                                                   = 296.0000       
     0:s7_wp                                                   = 104.0000       
     0:s8_wn                                                   = 259.0000       
     0:s8_wp                                                   =   1.5560k      
     0:diff                                                    =   0.           
     0:diff_b                                                  =   0.           
     0:half_vdd                                                = 500.0000m      
     0:read_1_diff_delay                                       =   0.           
     0:wl0_delay                                               =   0.           
     0:read_0_diff_delay                                       =   0.           
     0:wl255_delay                                             =   0.           
     5:nl                                                      =   2.0000       
     5:nw                                                      =   9.0000       
     5:nm                                                      =   1.0000       
     5:pl                                                      =   2.0000       
     5:pw                                                      =   3.0000       
     5:pm                                                      =   1.0000       




 constants  - tnom         kt           vt           gapsi        ni
            298.15000    4.1163e-21    25.69184m     1.11562    1.2565e+16 
  **info** (task3.sp:30) DC voltage reset to initial transient source value              in source        0:vblpc_b             new dc=  0.0000D+00
  **warning** (/afs/ir.stanford.edu/class/ee313/ee313_spice_header.h:18) Both nodes of element vgnd are connected together; Line ignored.
 ** warning** associated with encrypted blocks were suppressed

1****** HSPICE -- F-2011.09-SP2 32-BIT (Feb 27 2012) linux ******               
 ******  
 ee-313 sense amplifier analysis

  ******  circuit element summary tnom=  25.000 temp=  25.000 *****


 **** capacitors
  
  
                                                                     
 element name        0:c_sidelo    0:c_sidelo   40:c2      40:c1     
 node1               0:net17       0:net14       0:bl63     0:bl_b63 
 node2               0:0           0:0           0:0        0:0      
 model                                                               
 cap eff            22.5300f      22.5300f      88.0000a   88.0000a  
 tc1                 0.            0.            0.         0.       
 tc2                 0.            0.            0.         0.       
 scale               1.0000        1.0000        1.0000     1.0000   
 ic                  0.            0.            0.         0.       
 m                   1.0000        1.0000        1.0000     1.0000   
 w                   0.            0.            0.         0.       
 l                   0.            0.            0.         0.       
 temp               25.0000       25.0000       25.0000    25.0000   
  
  
                                                              
 element name       40:c0      41:c2      41:c1      41:c0    
 node1               0:wl255    4:net9     4:net8     0:wl255 
 node2               0:0        0:0        0:0        0:0     
 model                                                        
 cap eff           140.0000a   22.3520f   22.3520f   35.5600f 
 tc1                 0.         0.         0.         0.      
 tc2                 0.         0.         0.         0.      
 scale               1.0000     1.0000     1.0000     1.0000  
 ic                  0.         0.         0.         0.      
 m                   1.0000   254.0000   254.0000   254.0000  
 w                   0.         0.         0.         0.      
 l                   0.         0.         0.         0.      
 temp               25.0000    25.0000    25.0000    25.0000  
  
  
                                                              
 element name       42:c2      42:c1      42:c0      43:c2    
 node1               0:bl0      0:bl_b0    0:wl255    0:bl0   
 node2               0:0        0:0        0:0        0:0     
 model                                                        
 cap eff            88.0000a   88.0000a  140.0000a   22.3520f 
 tc1                 0.         0.         0.         0.      
 tc2                 0.         0.         0.         0.      
 scale               1.0000     1.0000     1.0000     1.0000  
 ic                  0.         0.         0.         0.      
 m                   1.0000     1.0000     1.0000   254.0000  
 w                   0.         0.         0.         0.      
 l                   0.         0.         0.         0.      
 temp               25.0000    25.0000    25.0000    25.0000  
  
  
                                                              
 element name       43:c1      44:c2      44:c1      45:c2    
 node1               0:bl_b0    4:net9     4:net8     0:bl63  
 node2               0:0        0:0        0:0        0:0     
 model                                                        
 cap eff            22.3520f    5.6778p    5.6778p   22.3520f 
 tc1                 0.         0.         0.         0.      
 tc2                 0.         0.         0.         0.      
 scale               1.0000     1.0000     1.0000     1.0000  
 ic                  0.         0.         0.         0.      
 m                 254.0000    64.5200k   64.5200k  254.0000  
 w                   0.         0.         0.         0.      
 l                   0.         0.         0.         0.      
 temp               25.0000    25.0000    25.0000    25.0000  
  
  
                                                                
 element name       45:c1       46:c2      46:c1       46:c0    
 node1               0:bl_b63    0:bl63     0:bl_b63    0:wl0   
 node2               0:0         0:0        0:0         0:0     
 model                                                          
 cap eff            22.3520f    88.0000a   88.0000a   140.0000a 
 tc1                 0.          0.         0.          0.      
 tc2                 0.          0.         0.          0.      
 scale               1.0000      1.0000     1.0000      1.0000  
 ic                  0.          0.         0.          0.      
 m                 254.0000      1.0000     1.0000      1.0000  
 w                   0.          0.         0.          0.      
 l                   0.          0.         0.          0.      
 temp               25.0000     25.0000    25.0000     25.0000  
  
  
                                                              
 element name       47:c2      47:c1      47:c0      48:c2    
 node1               4:net9     4:net8     0:wl0      0:bl0   
 node2               0:0        0:0        0:0        0:0     
 model                                                        
 cap eff            22.3520f   22.3520f   35.5600f   88.0000a 
 tc1                 0.         0.         0.         0.      
 tc2                 0.         0.         0.         0.      
 scale               1.0000     1.0000     1.0000     1.0000  
 ic                  0.         0.         0.         0.      
 m                 254.0000   254.0000   254.0000     1.0000  
 w                   0.         0.         0.         0.      
 l                   0.         0.         0.         0.      
 temp               25.0000    25.0000    25.0000    25.0000  
  
  
                                        
 element name       48:c1      48:c0    
 node1               0:bl_b0    0:wl0   
 node2               0:0        0:0     
 model                                  
 cap eff            88.0000a  140.0000a 
 tc1                 0.         0.      
 tc2                 0.         0.      
 scale               1.0000     1.0000  
 ic                  0.         0.      
 m                   1.0000     1.0000  
 w                   0.         0.      
 l                   0.         0.      
 temp               25.0000    25.0000  


 **** independent sources

     name         node1        node2      dc volt    ac mag    ac phase    type
  v_supply  vdd               0                    1.0000     0.         0.      dc   
  v_supply1  vdd!              0                    1.0000     0.         0.      dc   
  vblpc_b  blpc_b            0                    0.         0.         0.      pulse
             initial value     0.     
             pulsed value.     1.0000 
             delay time...   500.0000p
             risetime.....    50.0000p
             falltime.....    50.0000p
             width........   500.0000p
             period.......     1.0000n

  vck  ck                0                    0.         0.         0.      pulse
             initial value     0.     
             pulsed value.     1.0000 
             delay time...   500.0000p
             risetime.....    50.0000p
             falltime.....    50.0000p
             width........   500.0000p
             period.......     1.0000n

  vdc3  address0          0                    1.0000     0.         0.      pwl  
                time        value

                   0.           1.0000 
                   1.3000n      1.0000 
                   1.3500n      0.     


  vdc4  address255        0                    0.         0.         0.      pwl  
                time        value

                   0.           0.     
                   1.3000n      0.     
                   1.3500n      1.0000 




 **** mosfets


 **** BSIM4 Model (Level 54)
  
  
                                                                    
 element name        5:m10         5:m9       5:m1       5:m7       
 drain               5:net9        5:net5     1:nand1    1:nand1    
 gate                0:address0    0:vdd!     0:ck       0:address0 
 source              0:0           5:net9     5:net5     0:vdd!     
 bulk                0:0           0:0        0:0        0:vdd!     
 model               0:nmos        0:nmos     0:nmos     0:pmos     
 w eff             188.0000n     188.0000n  188.0000n   56.0000n    
 l eff              29.0000n      29.0000n   29.0000n   29.0000n    
 rd eff              0.            0.         0.         0.         
 rs eff              0.            0.         0.         0.         
 cdsat              16.9167a      16.9167a   16.9167a    6.0606a    
 cssat              16.9167a      16.9167a   16.9167a    6.0606a    
 capbd             245.8633a     245.8633a  245.8633a  111.2291a    
 capbs             206.3425a     206.3425a  206.3425a   98.0555a    
 temp               25.0000       25.0000    25.0000    25.0000     
 aic                                                                
 nf                  1.0000        1.0000     1.0000     1.0000     
 min                 0.            0.         0.         0.         
 rbdb               15.0000       15.0000    15.0000    15.0000     
 rbsb               15.0000       15.0000    15.0000    15.0000     
 rbpb                5.0000        5.0000     5.0000     5.0000     
 rbps               15.0000       15.0000    15.0000    15.0000     
 rbpd               15.0000       15.0000    15.0000    15.0000     
 trnqsmod            0.            0.         0.         0.         
 acnqsmod            0.            0.         0.         0.         
 rbodymod            1.0000        1.0000     1.0000     1.0000     
 rgatemod            1.0000        1.0000     1.0000     1.0000     
 geomod              0.            0.         0.         0.         
 rgeomod             0.            0.         0.         0.         
 delvto              0.            0.         0.         0.         
 mulu0               1.0000        1.0000     1.0000     1.0000     
 delk1               0.            0.         0.         0.         
 delnfct             0.            0.         0.         0.         
 deltox              0.            0.         0.         0.         
 sa                  0.            0.         0.         0.         
 sb                  0.            0.         0.         0.         
 sd                  0.            0.         0.         0.         
 saeff               0.            0.         0.         0.         
 sbeff               0.            0.         0.         0.         
  
  
                                                                 
 element name        5:m6       5:m0       6:m10         6:m9    
 drain               1:nand1    1:nand1    6:net9        6:net5  
 gate                0:vdd!     0:ck       0:address0    0:0     
 source              0:vdd!     0:vdd!     0:0           6:net9  
 bulk                0:vdd!     0:vdd!     0:0           0:0     
 model               0:pmos     0:pmos     0:nmos        0:nmos  
 w eff              56.0000n   56.0000n  188.0000n     188.0000n 
 l eff              29.0000n   29.0000n   29.0000n      29.0000n 
 rd eff              0.         0.         0.            0.      
 rs eff              0.         0.         0.            0.      
 cdsat               6.0606a    6.0606a   16.9167a      16.9167a 
 cssat               6.0606a    6.0606a   16.9167a      16.9167a 
 capbd             111.2291a  111.2291a  245.8633a     245.8633a 
 capbs              98.0555a   98.0555a  206.3425a     206.3425a 
 temp               25.0000    25.0000    25.0000       25.0000  
 aic                                                             
 nf                  1.0000     1.0000     1.0000        1.0000  
 min                 0.         0.         0.            0.      
 rbdb               15.0000    15.0000    15.0000       15.0000  
 rbsb               15.0000    15.0000    15.0000       15.0000  
 rbpb                5.0000     5.0000     5.0000        5.0000  
 rbps               15.0000    15.0000    15.0000       15.0000  
 rbpd               15.0000    15.0000    15.0000       15.0000  
 trnqsmod            0.         0.         0.            0.      
 acnqsmod            0.         0.         0.            0.      
 rbodymod            1.0000     1.0000     1.0000        1.0000  
 rgatemod            1.0000     1.0000     1.0000        1.0000  
 geomod              0.         0.         0.            0.      
 rgeomod             0.         0.         0.            0.      
 delvto              0.         0.         0.            0.      
 mulu0               1.0000     1.0000     1.0000        1.0000  
 delk1               0.         0.         0.            0.      
 delnfct             0.         0.         0.            0.      
 deltox              0.         0.         0.            0.      
 sa                  0.         0.         0.            0.      
 sb                  0.         0.         0.            0.      
 sd                  0.         0.         0.            0.      
 saeff               0.         0.         0.            0.      
 sbeff               0.         0.         0.            0.      
  
  
                                                                 
 element name        6:m1       6:m7          6:m6       6:m0    
 drain               1:net22    1:net22       1:net22    1:net22 
 gate                0:ck       0:address0    0:0        0:ck    
 source              6:net5     0:vdd!        0:vdd!     0:vdd!  
 bulk                0:0        0:vdd!        0:vdd!     0:vdd!  
 model               0:nmos     0:pmos        0:pmos     0:pmos  
 w eff             188.0000n   56.0000n      56.0000n   56.0000n 
 l eff              29.0000n   29.0000n      29.0000n   29.0000n 
 rd eff              0.         0.            0.         0.      
 rs eff              0.         0.            0.         0.      
 cdsat              16.9167a    6.0606a       6.0606a    6.0606a 
 cssat              16.9167a    6.0606a       6.0606a    6.0606a 
 capbd             245.8633a  111.2291a     111.2291a  111.2291a 
 capbs             206.3425a   98.0555a      98.0555a   98.0555a 
 temp               25.0000    25.0000       25.0000    25.0000  
 aic                                                             
 nf                  1.0000     1.0000        1.0000     1.0000  
 min                 0.         0.            0.         0.      
 rbdb               15.0000    15.0000       15.0000    15.0000  
 rbsb               15.0000    15.0000       15.0000    15.0000  
 rbpb                5.0000     5.0000        5.0000     5.0000  
 rbps               15.0000    15.0000       15.0000    15.0000  
 rbpd               15.0000    15.0000       15.0000    15.0000  
 trnqsmod            0.         0.            0.         0.      
 acnqsmod            0.         0.            0.         0.      
 rbodymod            1.0000     1.0000        1.0000     1.0000  
 rgatemod            1.0000     1.0000        1.0000     1.0000  
 geomod              0.         0.            0.         0.      
 rgeomod             0.         0.            0.         0.      
 delvto              0.         0.            0.         0.      
 mulu0               1.0000     1.0000        1.0000     1.0000  
 delk1               0.         0.            0.         0.      
 delnfct             0.         0.            0.         0.      
 deltox              0.         0.            0.         0.      
 sa                  0.         0.            0.         0.      
 sb                  0.         0.            0.         0.      
 sd                  0.         0.            0.         0.      
 saeff               0.         0.            0.         0.      
 sbeff               0.         0.            0.         0.      
  
  
                                                                      
 element name        7:m10         7:m9       7:m1         7:m7       
 drain               7:net9        7:net5     1:nand1_1    1:nand1_1  
 gate                0:address2    0:vdd!     0:ck         0:address2 
 source              0:0           7:net9     7:net5       0:vdd!     
 bulk                0:0           0:0        0:0          0:vdd!     
 model               0:nmos        0:nmos     0:nmos       0:pmos     
 w eff             188.0000n     188.0000n  188.0000n     56.0000n    
 l eff              29.0000n      29.0000n   29.0000n     29.0000n    
 rd eff              0.            0.         0.           0.         
 rs eff              0.            0.         0.           0.         
 cdsat              16.9167a      16.9167a   16.9167a      6.0606a    
 cssat              16.9167a      16.9167a   16.9167a      6.0606a    
 capbd             245.8633a     245.8633a  245.8633a    111.2291a    
 capbs             206.3425a     206.3425a  206.3425a     98.0555a    
 temp               25.0000       25.0000    25.0000      25.0000     
 aic                                                                  
 nf                  1.0000        1.0000     1.0000       1.0000     
 min                 0.            0.         0.           0.         
 rbdb               15.0000       15.0000    15.0000      15.0000     
 rbsb               15.0000       15.0000    15.0000      15.0000     
 rbpb                5.0000        5.0000     5.0000       5.0000     
 rbps               15.0000       15.0000    15.0000      15.0000     
 rbpd               15.0000       15.0000    15.0000      15.0000     
 trnqsmod            0.            0.         0.           0.         
 acnqsmod            0.            0.         0.           0.         
 rbodymod            1.0000        1.0000     1.0000       1.0000     
 rgatemod            1.0000        1.0000     1.0000       1.0000     
 geomod              0.            0.         0.           0.         
 rgeomod             0.            0.         0.           0.         
 delvto              0.            0.         0.           0.         
 mulu0               1.0000        1.0000     1.0000       1.0000     
 delk1               0.            0.         0.           0.         
 delnfct             0.            0.         0.           0.         
 deltox              0.            0.         0.           0.         
 sa                  0.            0.         0.           0.         
 sb                  0.            0.         0.           0.         
 sd                  0.            0.         0.           0.         
 saeff               0.            0.         0.           0.         
 sbeff               0.            0.         0.           0.         
  
  
                                                                     
 element name        7:m6         7:m0         8:m10         8:m9    
 drain               1:nand1_1    1:nand1_1    8:net9        8:net5  
 gate                0:vdd!       0:ck         0:address2    0:0     
 source              0:vdd!       0:vdd!       0:0           8:net9  
 bulk                0:vdd!       0:vdd!       0:0           0:0     
 model               0:pmos       0:pmos       0:nmos        0:nmos  
 w eff              56.0000n     56.0000n    188.0000n     188.0000n 
 l eff              29.0000n     29.0000n     29.0000n      29.0000n 
 rd eff              0.           0.           0.            0.      
 rs eff              0.           0.           0.            0.      
 cdsat               6.0606a      6.0606a     16.9167a      16.9167a 
 cssat               6.0606a      6.0606a     16.9167a      16.9167a 
 capbd             111.2291a    111.2291a    245.8633a     245.8633a 
 capbs              98.0555a     98.0555a    206.3425a     206.3425a 
 temp               25.0000      25.0000      25.0000       25.0000  
 aic                                                                 
 nf                  1.0000       1.0000       1.0000        1.0000  
 min                 0.           0.           0.            0.      
 rbdb               15.0000      15.0000      15.0000       15.0000  
 rbsb               15.0000      15.0000      15.0000       15.0000  
 rbpb                5.0000       5.0000       5.0000        5.0000  
 rbps               15.0000      15.0000      15.0000       15.0000  
 rbpd               15.0000      15.0000      15.0000       15.0000  
 trnqsmod            0.           0.           0.            0.      
 acnqsmod            0.           0.           0.            0.      
 rbodymod            1.0000       1.0000       1.0000        1.0000  
 rgatemod            1.0000       1.0000       1.0000        1.0000  
 geomod              0.           0.           0.            0.      
 rgeomod             0.           0.           0.            0.      
 delvto              0.           0.           0.            0.      
 mulu0               1.0000       1.0000       1.0000        1.0000  
 delk1               0.           0.           0.            0.      
 delnfct             0.           0.           0.            0.      
 deltox              0.           0.           0.            0.      
 sa                  0.           0.           0.            0.      
 sb                  0.           0.           0.            0.      
 sd                  0.           0.           0.            0.      
 saeff               0.           0.           0.            0.      
 sbeff               0.           0.           0.            0.      
  
  
                                                                 
 element name        8:m1       8:m7          8:m6       8:m0    
 drain               1:net14    1:net14       1:net14    1:net14 
 gate                0:ck       0:address2    0:0        0:ck    
 source              8:net5     0:vdd!        0:vdd!     0:vdd!  
 bulk                0:0        0:vdd!        0:vdd!     0:vdd!  
 model               0:nmos     0:pmos        0:pmos     0:pmos  
 w eff             188.0000n   56.0000n      56.0000n   56.0000n 
 l eff              29.0000n   29.0000n      29.0000n   29.0000n 
 rd eff              0.         0.            0.         0.      
 rs eff              0.         0.            0.         0.      
 cdsat              16.9167a    6.0606a       6.0606a    6.0606a 
 cssat              16.9167a    6.0606a       6.0606a    6.0606a 
 capbd             245.8633a  111.2291a     111.2291a  111.2291a 
 capbs             206.3425a   98.0555a      98.0555a   98.0555a 
 temp               25.0000    25.0000       25.0000    25.0000  
 aic                                                             
 nf                  1.0000     1.0000        1.0000     1.0000  
 min                 0.         0.            0.         0.      
 rbdb               15.0000    15.0000       15.0000    15.0000  
 rbsb               15.0000    15.0000       15.0000    15.0000  
 rbpb                5.0000     5.0000        5.0000     5.0000  
 rbps               15.0000    15.0000       15.0000    15.0000  
 rbpd               15.0000    15.0000       15.0000    15.0000  
 trnqsmod            0.         0.            0.         0.      
 acnqsmod            0.         0.            0.         0.      
 rbodymod            1.0000     1.0000        1.0000     1.0000  
 rgatemod            1.0000     1.0000        1.0000     1.0000  
 geomod              0.         0.            0.         0.      
 rgeomod             0.         0.            0.         0.      
 delvto              0.         0.            0.         0.      
 mulu0               1.0000     1.0000        1.0000     1.0000  
 delk1               0.         0.            0.         0.      
 delnfct             0.         0.            0.         0.      
 deltox              0.         0.            0.         0.      
 sa                  0.         0.            0.         0.      
 sb                  0.         0.            0.         0.      
 sd                  0.         0.            0.         0.      
 saeff               0.         0.            0.         0.      
 sbeff               0.         0.            0.         0.      
  
  
                                                                  
 element name        9:m1       9:m2      10:m1        10:m2      
 drain               1:net6     1:net6     0:net1       0:net1    
 gate                1:net14    1:net14    1:nand1_1    1:nand1_1 
 source              0:vdd!     0:0        0:vdd!       0:0       
 bulk                0:vdd!     0:0        0:vdd!       0:0       
 model               0:pmos     0:nmos     0:pmos       0:nmos    
 w eff             892.0000n  144.0000n  892.0000n    144.0000n   
 l eff              29.0000n   29.0000n   29.0000n     29.0000n   
 rd eff              0.         0.         0.           0.        
 rs eff              0.         0.         0.           0.        
 cdsat              74.8155a   13.2980a   74.8155a     13.2980a   
 cssat              74.8155a   13.2980a   74.8155a     13.2980a   
 capbd             963.9123a  200.9852a  963.9123a    200.9852a   
 capbs             783.8731a  170.2468a  783.8731a    170.2468a   
 temp               25.0000    25.0000    25.0000      25.0000    
 aic                                                              
 nf                  1.0000     1.0000     1.0000       1.0000    
 min                 0.         0.         0.           0.        
 rbdb               15.0000    15.0000    15.0000      15.0000    
 rbsb               15.0000    15.0000    15.0000      15.0000    
 rbpb                5.0000     5.0000     5.0000       5.0000    
 rbps               15.0000    15.0000    15.0000      15.0000    
 rbpd               15.0000    15.0000    15.0000      15.0000    
 trnqsmod            0.         0.         0.           0.        
 acnqsmod            0.         0.         0.           0.        
 rbodymod            1.0000     1.0000     1.0000       1.0000    
 rgatemod            1.0000     1.0000     1.0000       1.0000    
 geomod              0.         0.         0.           0.        
 rgeomod             0.         0.         0.           0.        
 delvto              0.         0.         0.           0.        
 mulu0               1.0000     1.0000     1.0000       1.0000    
 delk1               0.         0.         0.           0.        
 delnfct             0.         0.         0.           0.        
 deltox              0.         0.         0.           0.        
 sa                  0.         0.         0.           0.        
 sb                  0.         0.         0.           0.        
 sd                  0.         0.         0.           0.        
 saeff               0.         0.         0.           0.        
 sbeff               0.         0.         0.           0.        
  
  
                                                              
 element name       11:m1      11:m2      12:m1      12:m2    
 drain               1:net10    1:net10    0:net2     0:net2  
 gate                1:net22    1:net22    1:nand1    1:nand1 
 source              0:vdd!     0:0        0:vdd!     0:0     
 bulk                0:vdd!     0:0        0:vdd!     0:0     
 model               0:pmos     0:nmos     0:pmos     0:nmos  
 w eff             892.0000n  144.0000n  892.0000n  144.0000n 
 l eff              29.0000n   29.0000n   29.0000n   29.0000n 
 rd eff              0.         0.         0.         0.      
 rs eff              0.         0.         0.         0.      
 cdsat              74.8155a   13.2980a   74.8155a   13.2980a 
 cssat              74.8155a   13.2980a   74.8155a   13.2980a 
 capbd             963.9123a  200.9852a  963.9123a  200.9852a 
 capbs             783.8731a  170.2468a  783.8731a  170.2468a 
 temp               25.0000    25.0000    25.0000    25.0000  
 aic                                                          
 nf                  1.0000     1.0000     1.0000     1.0000  
 min                 0.         0.         0.         0.      
 rbdb               15.0000    15.0000    15.0000    15.0000  
 rbsb               15.0000    15.0000    15.0000    15.0000  
 rbpb                5.0000     5.0000     5.0000     5.0000  
 rbps               15.0000    15.0000    15.0000    15.0000  
 rbpd               15.0000    15.0000    15.0000    15.0000  
 trnqsmod            0.         0.         0.         0.      
 acnqsmod            0.         0.         0.         0.      
 rbodymod            1.0000     1.0000     1.0000     1.0000  
 rgatemod            1.0000     1.0000     1.0000     1.0000  
 geomod              0.         0.         0.         0.      
 rgeomod             0.         0.         0.         0.      
 delvto              0.         0.         0.         0.      
 mulu0               1.0000     1.0000     1.0000     1.0000  
 delk1               0.         0.         0.         0.      
 delnfct             0.         0.         0.         0.      
 deltox              0.         0.         0.         0.      
 sa                  0.         0.         0.         0.      
 sb                  0.         0.         0.         0.      
 sd                  0.         0.         0.         0.      
 saeff               0.         0.         0.         0.      
 sbeff               0.         0.         0.         0.      
  
  
                                                              
 element name       13:m2      13:m0      13:m3      13:m1    
 drain               2:net77    2:net77   13:mid_a    2:net77 
 gate                0:net2     0:vdd!     0:net2     0:vdd!  
 source              0:vdd!     0:vdd!     0:0       13:mid_a 
 bulk                0:vdd!     0:vdd!     0:0        0:0     
 model               0:pmos     0:pmos     0:nmos     0:nmos  
 w eff             738.0000n  738.0000n  122.0000n  122.0000n 
 l eff              29.0000n   29.0000n   29.0000n   29.0000n 
 rd eff              0.         0.         0.         0.      
 rs eff              0.         0.         0.         0.      
 cdsat              62.1501a   62.1501a   11.4887a   11.4887a 
 cssat              62.1501a   62.1501a   11.4887a   11.4887a 
 capbd             806.8391a  806.8391a  178.5462a  178.5462a 
 capbs             657.5383a  657.5383a  152.1990a  152.1990a 
 temp               25.0000    25.0000    25.0000    25.0000  
 aic                                                          
 nf                  1.0000     1.0000     1.0000     1.0000  
 min                 0.         0.         0.         0.      
 rbdb               15.0000    15.0000    15.0000    15.0000  
 rbsb               15.0000    15.0000    15.0000    15.0000  
 rbpb                5.0000     5.0000     5.0000     5.0000  
 rbps               15.0000    15.0000    15.0000    15.0000  
 rbpd               15.0000    15.0000    15.0000    15.0000  
 trnqsmod            0.         0.         0.         0.      
 acnqsmod            0.         0.         0.         0.      
 rbodymod            1.0000     1.0000     1.0000     1.0000  
 rgatemod            1.0000     1.0000     1.0000     1.0000  
 geomod              0.         0.         0.         0.      
 rgeomod             0.         0.         0.         0.      
 delvto              0.         0.         0.         0.      
 mulu0               1.0000     1.0000     1.0000     1.0000  
 delk1               0.         0.         0.         0.      
 delnfct             0.         0.         0.         0.      
 deltox              0.         0.         0.         0.      
 sa                  0.         0.         0.         0.      
 sb                  0.         0.         0.         0.      
 sd                  0.         0.         0.         0.      
 saeff               0.         0.         0.         0.      
 sbeff               0.         0.         0.         0.      
  
  
                                                                 
 element name       14:m2       14:m0       14:m3      14:m1     
 drain               2:net057    2:net057   14:mid_a    2:net057 
 gate                0:net1      0:vdd!      0:net1     0:vdd!   
 source              0:vdd!      0:vdd!      0:0       14:mid_a  
 bulk                0:vdd!      0:vdd!      0:0        0:0      
 model               0:pmos      0:pmos      0:nmos     0:nmos   
 w eff             738.0000n   738.0000n   122.0000n  122.0000n  
 l eff              29.0000n    29.0000n    29.0000n   29.0000n  
 rd eff              0.          0.          0.         0.       
 rs eff              0.          0.          0.         0.       
 cdsat              62.1501a    62.1501a    11.4887a   11.4887a  
 cssat              62.1501a    62.1501a    11.4887a   11.4887a  
 capbd             806.8391a   806.8391a   178.5462a  178.5462a  
 capbs             657.5383a   657.5383a   152.1990a  152.1990a  
 temp               25.0000     25.0000     25.0000    25.0000   
 aic                                                             
 nf                  1.0000      1.0000      1.0000     1.0000   
 min                 0.          0.          0.         0.       
 rbdb               15.0000     15.0000     15.0000    15.0000   
 rbsb               15.0000     15.0000     15.0000    15.0000   
 rbpb                5.0000      5.0000      5.0000     5.0000   
 rbps               15.0000     15.0000     15.0000    15.0000   
 rbpd               15.0000     15.0000     15.0000    15.0000   
 trnqsmod            0.          0.          0.         0.       
 acnqsmod            0.          0.          0.         0.       
 rbodymod            1.0000      1.0000      1.0000     1.0000   
 rgatemod            1.0000      1.0000      1.0000     1.0000   
 geomod              0.          0.          0.         0.       
 rgeomod             0.          0.          0.         0.       
 delvto              0.          0.          0.         0.       
 mulu0               1.0000      1.0000      1.0000     1.0000   
 delk1               0.          0.          0.         0.       
 delnfct             0.          0.          0.         0.       
 deltox              0.          0.          0.         0.       
 sa                  0.          0.          0.         0.       
 sb                  0.          0.          0.         0.       
 sd                  0.          0.          0.         0.       
 saeff               0.          0.          0.         0.       
 sbeff               0.          0.          0.         0.       
  
  
                                                                  
 element name       15:m1       15:m2       16:m1       16:m2     
 drain               2:net032    2:net032    2:net036    2:net036 
 gate                2:net77     2:net77     2:net057    2:net057 
 source              0:vdd!      0:0         0:vdd!      0:0      
 bulk                0:vdd!      0:0         0:vdd!      0:0      
 model               0:pmos      0:nmos      0:pmos      0:nmos   
 w eff             672.0000n     1.3540u   672.0000n     1.3540u  
 l eff              29.0000n    29.0000n    29.0000n    29.0000n  
 rd eff              0.          0.          0.          0.       
 rs eff              0.          0.          0.          0.       
 cdsat              56.7221a   112.8116a    56.7221a   112.8116a  
 cssat              56.7221a   112.8116a    56.7221a   112.8116a  
 capbd             739.5220a     1.4351f   739.5220a     1.4351f  
 capbs             603.3948a     1.1629f   603.3948a     1.1629f  
 temp               25.0000     25.0000     25.0000     25.0000   
 aic                                                              
 nf                  1.0000      1.0000      1.0000      1.0000   
 min                 0.          0.          0.          0.       
 rbdb               15.0000     15.0000     15.0000     15.0000   
 rbsb               15.0000     15.0000     15.0000     15.0000   
 rbpb                5.0000      5.0000      5.0000      5.0000   
 rbps               15.0000     15.0000     15.0000     15.0000   
 rbpd               15.0000     15.0000     15.0000     15.0000   
 trnqsmod            0.          0.          0.          0.       
 acnqsmod            0.          0.          0.          0.       
 rbodymod            1.0000      1.0000      1.0000      1.0000   
 rgatemod            1.0000      1.0000      1.0000      1.0000   
 geomod              0.          0.          0.          0.       
 rgeomod             0.          0.          0.          0.       
 delvto              0.          0.          0.          0.       
 mulu0               1.0000      1.0000      1.0000      1.0000   
 delk1               0.          0.          0.          0.       
 delnfct             0.          0.          0.          0.       
 deltox              0.          0.          0.          0.       
 sa                  0.          0.          0.          0.       
 sb                  0.          0.          0.          0.       
 sd                  0.          0.          0.          0.       
 saeff               0.          0.          0.          0.       
 sbeff               0.          0.          0.          0.       
  
  
                                                              
 element name       17:m1      17:m2      18:m1      18:m2    
 drain               2:net69    2:net69    2:net73    2:net73 
 gate                2:net55    2:net55    2:net63    2:net63 
 source              0:vdd!     0:0        0:vdd!     0:0     
 bulk                0:vdd!     0:0        0:vdd!     0:0     
 model               0:pmos     0:nmos     0:pmos     0:nmos  
 w eff               2.0160u    4.0620u    2.0160u    4.0620u 
 l eff              29.0000n   29.0000n   29.0000n   29.0000n 
 rd eff              0.         0.         0.         0.      
 rs eff              0.         0.         0.         0.      
 cdsat             170.1663a  338.4348a  170.1663a  338.4348a 
 cssat             170.1663a  338.4348a  170.1663a  338.4348a 
 capbd             739.5220a    1.4351f  739.5220a    1.4351f 
 capbs             603.3948a    1.1629f  603.3948a    1.1629f 
 temp               25.0000    25.0000    25.0000    25.0000  
 aic                                                          
 nf                  1.0000     1.0000     1.0000     1.0000  
 min                 0.         0.         0.         0.      
 rbdb               15.0000    15.0000    15.0000    15.0000  
 rbsb               15.0000    15.0000    15.0000    15.0000  
 rbpb                5.0000     5.0000     5.0000     5.0000  
 rbps               15.0000    15.0000    15.0000    15.0000  
 rbpd               15.0000    15.0000    15.0000    15.0000  
 trnqsmod            0.         0.         0.         0.      
 acnqsmod            0.         0.         0.         0.      
 rbodymod            1.0000     1.0000     1.0000     1.0000  
 rgatemod            1.0000     1.0000     1.0000     1.0000  
 geomod              0.         0.         0.         0.      
 rgeomod             0.         0.         0.         0.      
 delvto              0.         0.         0.         0.      
 mulu0               1.0000     1.0000     1.0000     1.0000  
 delk1               0.         0.         0.         0.      
 delnfct             0.         0.         0.         0.      
 deltox              0.         0.         0.         0.      
 sa                  0.         0.         0.         0.      
 sb                  0.         0.         0.         0.      
 sd                  0.         0.         0.         0.      
 saeff               0.         0.         0.         0.      
 sbeff               0.         0.         0.         0.      
  
  
                                                              
 element name       19:m2      19:m0      19:m3      19:m1    
 drain               2:net55    2:net55   19:mid_a    2:net55 
 gate                0:net2     0:0        0:net2     0:0     
 source              0:vdd!     0:vdd!     0:0       19:mid_a 
 bulk                0:vdd!     0:vdd!     0:0        0:0     
 model               0:pmos     0:pmos     0:nmos     0:nmos  
 w eff               2.2140u    2.2140u  366.0000n  366.0000n 
 l eff              29.0000n   29.0000n   29.0000n   29.0000n 
 rd eff              0.         0.         0.         0.      
 rs eff              0.         0.         0.         0.      
 cdsat             186.4504a  186.4504a   34.4660a   34.4660a 
 cssat             186.4504a  186.4504a   34.4660a   34.4660a 
 capbd             806.8391a  806.8391a  178.5462a  178.5462a 
 capbs             657.5383a  657.5383a  152.1990a  152.1990a 
 temp               25.0000    25.0000    25.0000    25.0000  
 aic                                                          
 nf                  1.0000     1.0000     1.0000     1.0000  
 min                 0.         0.         0.         0.      
 rbdb               15.0000    15.0000    15.0000    15.0000  
 rbsb               15.0000    15.0000    15.0000    15.0000  
 rbpb                5.0000     5.0000     5.0000     5.0000  
 rbps               15.0000    15.0000    15.0000    15.0000  
 rbpd               15.0000    15.0000    15.0000    15.0000  
 trnqsmod            0.         0.         0.         0.      
 acnqsmod            0.         0.         0.         0.      
 rbodymod            1.0000     1.0000     1.0000     1.0000  
 rgatemod            1.0000     1.0000     1.0000     1.0000  
 geomod              0.         0.         0.         0.      
 rgeomod             0.         0.         0.         0.      
 delvto              0.         0.         0.         0.      
 mulu0               1.0000     1.0000     1.0000     1.0000  
 delk1               0.         0.         0.         0.      
 delnfct             0.         0.         0.         0.      
 deltox              0.         0.         0.         0.      
 sa                  0.         0.         0.         0.      
 sb                  0.         0.         0.         0.      
 sd                  0.         0.         0.         0.      
 saeff               0.         0.         0.         0.      
 sbeff               0.         0.         0.         0.      
  
  
                                                              
 element name       20:m2      20:m0      20:m3      20:m1    
 drain               2:net63    2:net63   20:mid_a    2:net63 
 gate                0:net1     0:0        0:net1     0:0     
 source              0:vdd!     0:vdd!     0:0       20:mid_a 
 bulk                0:vdd!     0:vdd!     0:0        0:0     
 model               0:pmos     0:pmos     0:nmos     0:nmos  
 w eff               2.2140u    2.2140u  366.0000n  366.0000n 
 l eff              29.0000n   29.0000n   29.0000n   29.0000n 
 rd eff              0.         0.         0.         0.      
 rs eff              0.         0.         0.         0.      
 cdsat             186.4504a  186.4504a   34.4660a   34.4660a 
 cssat             186.4504a  186.4504a   34.4660a   34.4660a 
 capbd             806.8391a  806.8391a  178.5462a  178.5462a 
 capbs             657.5383a  657.5383a  152.1990a  152.1990a 
 temp               25.0000    25.0000    25.0000    25.0000  
 aic                                                          
 nf                  1.0000     1.0000     1.0000     1.0000  
 min                 0.         0.         0.         0.      
 rbdb               15.0000    15.0000    15.0000    15.0000  
 rbsb               15.0000    15.0000    15.0000    15.0000  
 rbpb                5.0000     5.0000     5.0000     5.0000  
 rbps               15.0000    15.0000    15.0000    15.0000  
 rbpd               15.0000    15.0000    15.0000    15.0000  
 trnqsmod            0.         0.         0.         0.      
 acnqsmod            0.         0.         0.         0.      
 rbodymod            1.0000     1.0000     1.0000     1.0000  
 rgatemod            1.0000     1.0000     1.0000     1.0000  
 geomod              0.         0.         0.         0.      
 rgeomod             0.         0.         0.         0.      
 delvto              0.         0.         0.         0.      
 mulu0               1.0000     1.0000     1.0000     1.0000  
 delk1               0.         0.         0.         0.      
 delnfct             0.         0.         0.         0.      
 deltox              0.         0.         0.         0.      
 sa                  0.         0.         0.         0.      
 sb                  0.         0.         0.         0.      
 sd                  0.         0.         0.         0.      
 saeff               0.         0.         0.         0.      
 sbeff               0.         0.         0.         0.      
  
  
                                                                  
 element name       21:m1       21:m2       22:m1       22:m2     
 drain               2:net046    2:net046    2:net052    2:net052 
 gate                2:net032    2:net032    2:net036    2:net036 
 source              0:vdd!      0:0         0:vdd!      0:0      
 bulk                0:vdd!      0:0         0:vdd!      0:0      
 model               0:pmos      0:nmos      0:pmos      0:nmos   
 w eff               9.7580u     1.6180u     9.7580u     1.6180u  
 l eff              29.0000n    29.0000n    29.0000n    29.0000n  
 rd eff              0.          0.          0.          0.       
 rs eff              0.          0.          0.          0.       
 cdsat             803.9787a   134.5237a   803.9787a   134.5237a  
 cssat             803.9787a   134.5237a   803.9787a   134.5237a  
 capbd              10.0068f     1.7044f    10.0068f     1.7044f  
 capbs               8.0571f     1.3795f     8.0571f     1.3795f  
 temp               25.0000     25.0000     25.0000     25.0000   
 aic                                                              
 nf                  1.0000      1.0000      1.0000      1.0000   
 min                 0.          0.          0.          0.       
 rbdb               15.0000     15.0000     15.0000     15.0000   
 rbsb               15.0000     15.0000     15.0000     15.0000   
 rbpb                5.0000      5.0000      5.0000      5.0000   
 rbps               15.0000     15.0000     15.0000     15.0000   
 rbpd               15.0000     15.0000     15.0000     15.0000   
 trnqsmod            0.          0.          0.          0.       
 acnqsmod            0.          0.          0.          0.       
 rbodymod            1.0000      1.0000      1.0000      1.0000   
 rgatemod            1.0000      1.0000      1.0000      1.0000   
 geomod              0.          0.          0.          0.       
 rgeomod             0.          0.          0.          0.       
 delvto              0.          0.          0.          0.       
 mulu0               1.0000      1.0000      1.0000      1.0000   
 delk1               0.          0.          0.          0.       
 delnfct             0.          0.          0.          0.       
 deltox              0.          0.          0.          0.       
 sa                  0.          0.          0.          0.       
 sb                  0.          0.          0.          0.       
 sd                  0.          0.          0.          0.       
 saeff               0.          0.          0.          0.       
 sbeff               0.          0.          0.          0.       
  
  
                                                                  
 element name       23:m1       23:m2       24:m1       24:m2     
 drain               0:net17     0:net17     0:net14     0:net14  
 gate                2:net052    2:net052    2:net046    2:net046 
 source              0:vdd!      0:0         0:vdd!      0:0      
 bulk                0:vdd!      0:0         0:vdd!      0:0      
 model               0:pmos      0:nmos      0:pmos      0:nmos   
 w eff               9.0100u    18.0300u     9.0100u    18.0300u  
 l eff              29.0000n    29.0000n    29.0000n    29.0000n  
 rd eff              0.          0.          0.          0.       
 rs eff              0.          0.          0.          0.       
 cdsat             742.4612a     1.4843f   742.4612a     1.4843f  
 cssat             742.4612a     1.4843f   742.4612a     1.4843f  
 capbd               9.2439f    18.4439f     9.2439f    18.4439f  
 capbs               7.4435f    14.8431f     7.4435f    14.8431f  
 temp               25.0000     25.0000     25.0000     25.0000   
 aic                                                              
 nf                  1.0000      1.0000      1.0000      1.0000   
 min                 0.          0.          0.          0.       
 rbdb               15.0000     15.0000     15.0000     15.0000   
 rbsb               15.0000     15.0000     15.0000     15.0000   
 rbpb                5.0000      5.0000      5.0000      5.0000   
 rbps               15.0000     15.0000     15.0000     15.0000   
 rbpd               15.0000     15.0000     15.0000     15.0000   
 trnqsmod            0.          0.          0.          0.       
 acnqsmod            0.          0.          0.          0.       
 rbodymod            1.0000      1.0000      1.0000      1.0000   
 rgatemod            1.0000      1.0000      1.0000      1.0000   
 geomod              0.          0.          0.          0.       
 rgeomod             0.          0.          0.          0.       
 delvto              0.          0.          0.          0.       
 mulu0               1.0000      1.0000      1.0000      1.0000   
 delk1               0.          0.          0.          0.       
 delnfct             0.          0.          0.          0.       
 deltox              0.          0.          0.          0.       
 sa                  0.          0.          0.          0.       
 sb                  0.          0.          0.          0.       
 sd                  0.          0.          0.          0.       
 saeff               0.          0.          0.          0.       
 sbeff               0.          0.          0.          0.       
  
  
                                                                  
 element name       25:m1       25:m2       26:m1       26:m2     
 drain               2:net049    2:net049    2:net043    2:net043 
 gate                2:net69     2:net69     2:net73     2:net73  
 source              0:vdd!      0:0         0:vdd!      0:0      
 bulk                0:vdd!      0:0         0:vdd!      0:0      
 model               0:pmos      0:nmos      0:pmos      0:nmos   
 w eff              29.2740u     4.8540u    29.2740u     4.8540u  
 l eff              29.0000n    29.0000n    29.0000n    29.0000n  
 rd eff              0.          0.          0.          0.       
 rs eff              0.          0.          0.          0.       
 cdsat               2.4119f   403.5710a     2.4119f   403.5710a  
 cssat               2.4119f   403.5710a     2.4119f   403.5710a  
 capbd              10.0068f     1.7044f    10.0068f     1.7044f  
 capbs               8.0571f     1.3795f     8.0571f     1.3795f  
 temp               25.0000     25.0000     25.0000     25.0000   
 aic                                                              
 nf                  1.0000      1.0000      1.0000      1.0000   
 min                 0.          0.          0.          0.       
 rbdb               15.0000     15.0000     15.0000     15.0000   
 rbsb               15.0000     15.0000     15.0000     15.0000   
 rbpb                5.0000      5.0000      5.0000      5.0000   
 rbps               15.0000     15.0000     15.0000     15.0000   
 rbpd               15.0000     15.0000     15.0000     15.0000   
 trnqsmod            0.          0.          0.          0.       
 acnqsmod            0.          0.          0.          0.       
 rbodymod            1.0000      1.0000      1.0000      1.0000   
 rgatemod            1.0000      1.0000      1.0000      1.0000   
 geomod              0.          0.          0.          0.       
 rgeomod             0.          0.          0.          0.       
 delvto              0.          0.          0.          0.       
 mulu0               1.0000      1.0000      1.0000      1.0000   
 delk1               0.          0.          0.          0.       
 delnfct             0.          0.          0.          0.       
 deltox              0.          0.          0.          0.       
 sa                  0.          0.          0.          0.       
 sb                  0.          0.          0.          0.       
 sd                  0.          0.          0.          0.       
 saeff               0.          0.          0.          0.       
 sbeff               0.          0.          0.          0.       
  
  
                                                                  
 element name       27:m1       27:m2       28:m1       28:m2     
 drain               2:net024    2:net024    2:net028    2:net028 
 gate                2:net043    2:net043    2:net049    2:net049 
 source              0:vdd!      0:0         0:vdd!      0:0      
 bulk                0:vdd!      0:0         0:vdd!      0:0      
 model               0:pmos      0:nmos      0:pmos      0:nmos   
 w eff              27.0300u    54.0900u    27.0300u    54.0900u  
 l eff              29.0000n    29.0000n    29.0000n    29.0000n  
 rd eff              0.          0.          0.          0.       
 rs eff              0.          0.          0.          0.       
 cdsat               2.2274f     4.4529f     2.2274f     4.4529f  
 cssat               2.2274f     4.4529f     2.2274f     4.4529f  
 capbd               9.2439f    18.4439f     9.2439f    18.4439f  
 capbs               7.4435f    14.8431f     7.4435f    14.8431f  
 temp               25.0000     25.0000     25.0000     25.0000   
 aic                                                              
 nf                  1.0000      1.0000      1.0000      1.0000   
 min                 0.          0.          0.          0.       
 rbdb               15.0000     15.0000     15.0000     15.0000   
 rbsb               15.0000     15.0000     15.0000     15.0000   
 rbpb                5.0000      5.0000      5.0000      5.0000   
 rbps               15.0000     15.0000     15.0000     15.0000   
 rbpd               15.0000     15.0000     15.0000     15.0000   
 trnqsmod            0.          0.          0.          0.       
 acnqsmod            0.          0.          0.          0.       
 rbodymod            1.0000      1.0000      1.0000      1.0000   
 rgatemod            1.0000      1.0000      1.0000      1.0000   
 geomod              0.          0.          0.          0.       
 rgeomod             0.          0.          0.          0.       
 delvto              0.          0.          0.          0.       
 mulu0               1.0000      1.0000      1.0000      1.0000   
 delk1               0.          0.          0.          0.       
 delnfct             0.          0.          0.          0.       
 deltox              0.          0.          0.          0.       
 sa                  0.          0.          0.          0.       
 sb                  0.          0.          0.          0.       
 sd                  0.          0.          0.          0.       
 saeff               0.          0.          0.          0.       
 sbeff               0.          0.          0.          0.       
  
  
                                                              
 element name       29:m2      29:m0      29:m3      29:m1    
 drain               3:net11    3:net11   29:mid_a    3:net11 
 gate                0:net17    0:vdd!     0:net17    0:vdd!  
 source              0:vdd!     0:vdd!     0:0       29:mid_a 
 bulk                0:vdd!     0:vdd!     0:0        0:0     
 model               0:pmos     0:pmos     0:nmos     0:nmos  
 w eff               7.4700u    7.4700u    1.2440u    1.2440u 
 l eff              29.0000n   29.0000n   29.0000n   29.0000n 
 rd eff              0.         0.         0.         0.      
 rs eff              0.         0.         0.         0.      
 cdsat             615.8076a  615.8076a  103.7649a  103.7649a 
 cssat             615.8076a  615.8076a  103.7649a  103.7649a 
 capbd               7.6732f    7.6732f    1.3229f    1.3229f 
 capbs               6.1802f    6.1802f    1.0726f    1.0726f 
 temp               25.0000    25.0000    25.0000    25.0000  
 aic                                                          
 nf                  1.0000     1.0000     1.0000     1.0000  
 min                 0.         0.         0.         0.      
 rbdb               15.0000    15.0000    15.0000    15.0000  
 rbsb               15.0000    15.0000    15.0000    15.0000  
 rbpb                5.0000     5.0000     5.0000     5.0000  
 rbps               15.0000    15.0000    15.0000    15.0000  
 rbpd               15.0000    15.0000    15.0000    15.0000  
 trnqsmod            0.         0.         0.         0.      
 acnqsmod            0.         0.         0.         0.      
 rbodymod            1.0000     1.0000     1.0000     1.0000  
 rgatemod            1.0000     1.0000     1.0000     1.0000  
 geomod              0.         0.         0.         0.      
 rgeomod             0.         0.         0.         0.      
 delvto              0.         0.         0.         0.      
 mulu0               1.0000     1.0000     1.0000     1.0000  
 delk1               0.         0.         0.         0.      
 delnfct             0.         0.         0.         0.      
 deltox              0.         0.         0.         0.      
 sa                  0.         0.         0.         0.      
 sb                  0.         0.         0.         0.      
 sd                  0.         0.         0.         0.      
 saeff               0.         0.         0.         0.      
 sbeff               0.         0.         0.         0.      
  
  
                                                              
 element name       30:m2      30:m0      30:m3      30:m1    
 drain               3:net17    3:net17   30:mid_a    3:net17 
 gate                0:net14    0:vdd!     0:net14    0:vdd!  
 source              0:vdd!     0:vdd!     0:0       30:mid_a 
 bulk                0:vdd!     0:vdd!     0:0        0:0     
 model               0:pmos     0:pmos     0:nmos     0:nmos  
 w eff               7.4700u    7.4700u    1.2440u    1.2440u 
 l eff              29.0000n   29.0000n   29.0000n   29.0000n 
 rd eff              0.         0.         0.         0.      
 rs eff              0.         0.         0.         0.      
 cdsat             615.8076a  615.8076a  103.7649a  103.7649a 
 cssat             615.8076a  615.8076a  103.7649a  103.7649a 
 capbd               7.6732f    7.6732f    1.3229f    1.3229f 
 capbs               6.1802f    6.1802f    1.0726f    1.0726f 
 temp               25.0000    25.0000    25.0000    25.0000  
 aic                                                          
 nf                  1.0000     1.0000     1.0000     1.0000  
 min                 0.         0.         0.         0.      
 rbdb               15.0000    15.0000    15.0000    15.0000  
 rbsb               15.0000    15.0000    15.0000    15.0000  
 rbpb                5.0000     5.0000     5.0000     5.0000  
 rbps               15.0000    15.0000    15.0000    15.0000  
 rbpd               15.0000    15.0000    15.0000    15.0000  
 trnqsmod            0.         0.         0.         0.      
 acnqsmod            0.         0.         0.         0.      
 rbodymod            1.0000     1.0000     1.0000     1.0000  
 rgatemod            1.0000     1.0000     1.0000     1.0000  
 geomod              0.         0.         0.         0.      
 rgeomod             0.         0.         0.         0.      
 delvto              0.         0.         0.         0.      
 mulu0               1.0000     1.0000     1.0000     1.0000  
 delk1               0.         0.         0.         0.      
 delnfct             0.         0.         0.         0.      
 deltox              0.         0.         0.         0.      
 sa                  0.         0.         0.         0.      
 sb                  0.         0.         0.         0.      
 sd                  0.         0.         0.         0.      
 saeff               0.         0.         0.         0.      
 sbeff               0.         0.         0.         0.      
  
  
                                                              
 element name       31:m2      31:m0      31:m3      31:m1    
 drain               3:net8     3:net8    31:mid_a    3:net8  
 gate                0:net17    0:0        0:net17    0:0     
 source              0:vdd!     0:vdd!     0:0       31:mid_a 
 bulk                0:vdd!     0:vdd!     0:0        0:0     
 model               0:pmos     0:pmos     0:nmos     0:nmos  
 w eff             112.0500u  112.0500u   18.6600u   18.6600u 
 l eff              29.0000n   29.0000n   29.0000n   29.0000n 
 rd eff              0.         0.         0.         0.      
 rs eff              0.         0.         0.         0.      
 cdsat               9.2371f    9.2371f    1.5565f    1.5565f 
 cssat               9.2371f    9.2371f    1.5565f    1.5565f 
 capbd               7.6732f    7.6732f    1.3229f    1.3229f 
 capbs               6.1802f    6.1802f    1.0726f    1.0726f 
 temp               25.0000    25.0000    25.0000    25.0000  
 aic                                                          
 nf                  1.0000     1.0000     1.0000     1.0000  
 min                 0.         0.         0.         0.      
 rbdb               15.0000    15.0000    15.0000    15.0000  
 rbsb               15.0000    15.0000    15.0000    15.0000  
 rbpb                5.0000     5.0000     5.0000     5.0000  
 rbps               15.0000    15.0000    15.0000    15.0000  
 rbpd               15.0000    15.0000    15.0000    15.0000  
 trnqsmod            0.         0.         0.         0.      
 acnqsmod            0.         0.         0.         0.      
 rbodymod            1.0000     1.0000     1.0000     1.0000  
 rgatemod            1.0000     1.0000     1.0000     1.0000  
 geomod              0.         0.         0.         0.      
 rgeomod             0.         0.         0.         0.      
 delvto              0.         0.         0.         0.      
 mulu0               1.0000     1.0000     1.0000     1.0000  
 delk1               0.         0.         0.         0.      
 delnfct             0.         0.         0.         0.      
 deltox              0.         0.         0.         0.      
 sa                  0.         0.         0.         0.      
 sb                  0.         0.         0.         0.      
 sd                  0.         0.         0.         0.      
 saeff               0.         0.         0.         0.      
 sbeff               0.         0.         0.         0.      
  
  
                                                              
 element name       32:m2      32:m0      32:m3      32:m1    
 drain               3:net14    3:net14   32:mid_a    3:net14 
 gate                0:net14    0:0        0:net14    0:0     
 source              0:vdd!     0:vdd!     0:0       32:mid_a 
 bulk                0:vdd!     0:vdd!     0:0        0:0     
 model               0:pmos     0:pmos     0:nmos     0:nmos  
 w eff             112.0500u  112.0500u   18.6600u   18.6600u 
 l eff              29.0000n   29.0000n   29.0000n   29.0000n 
 rd eff              0.         0.         0.         0.      
 rs eff              0.         0.         0.         0.      
 cdsat               9.2371f    9.2371f    1.5565f    1.5565f 
 cssat               9.2371f    9.2371f    1.5565f    1.5565f 
 capbd               7.6732f    7.6732f    1.3229f    1.3229f 
 capbs               6.1802f    6.1802f    1.0726f    1.0726f 
 temp               25.0000    25.0000    25.0000    25.0000  
 aic                                                          
 nf                  1.0000     1.0000     1.0000     1.0000  
 min                 0.         0.         0.         0.      
 rbdb               15.0000    15.0000    15.0000    15.0000  
 rbsb               15.0000    15.0000    15.0000    15.0000  
 rbpb                5.0000     5.0000     5.0000     5.0000  
 rbps               15.0000    15.0000    15.0000    15.0000  
 rbpd               15.0000    15.0000    15.0000    15.0000  
 trnqsmod            0.         0.         0.         0.      
 acnqsmod            0.         0.         0.         0.      
 rbodymod            1.0000     1.0000     1.0000     1.0000  
 rgatemod            1.0000     1.0000     1.0000     1.0000  
 geomod              0.         0.         0.         0.      
 rgeomod             0.         0.         0.         0.      
 delvto              0.         0.         0.         0.      
 mulu0               1.0000     1.0000     1.0000     1.0000  
 delk1               0.         0.         0.         0.      
 delnfct             0.         0.         0.         0.      
 deltox              0.         0.         0.         0.      
 sa                  0.         0.         0.         0.      
 sb                  0.         0.         0.         0.      
 sd                  0.         0.         0.         0.      
 saeff               0.         0.         0.         0.      
 sbeff               0.         0.         0.         0.      
  
  
                                                              
 element name       33:m1      33:m2      34:m1      34:m2    
 drain               0:wl255    0:wl255    0:wl0      0:wl0   
 gate                3:net11    3:net11    3:net17    3:net17 
 source              0:vdd!     0:0        0:vdd!     0:0     
 bulk                0:vdd!     0:0        0:vdd!     0:0     
 model               0:pmos     0:nmos     0:pmos     0:nmos  
 w eff               6.4140u   12.8160u    6.4140u   12.8160u 
 l eff              29.0000n   29.0000n   29.0000n   29.0000n 
 rd eff              0.         0.         0.         0.      
 rs eff              0.         0.         0.         0.      
 cdsat             528.9593a    1.0555f  528.9593a    1.0555f 
 cssat             528.9593a    1.0555f  528.9593a    1.0555f 
 capbd               6.5961f   13.1259f    6.5961f   13.1259f 
 capbs               5.3139f   10.5658f    5.3139f   10.5658f 
 temp               25.0000    25.0000    25.0000    25.0000  
 aic                                                          
 nf                  1.0000     1.0000     1.0000     1.0000  
 min                 0.         0.         0.         0.      
 rbdb               15.0000    15.0000    15.0000    15.0000  
 rbsb               15.0000    15.0000    15.0000    15.0000  
 rbpb                5.0000     5.0000     5.0000     5.0000  
 rbps               15.0000    15.0000    15.0000    15.0000  
 rbpd               15.0000    15.0000    15.0000    15.0000  
 trnqsmod            0.         0.         0.         0.      
 acnqsmod            0.         0.         0.         0.      
 rbodymod            1.0000     1.0000     1.0000     1.0000  
 rgatemod            1.0000     1.0000     1.0000     1.0000  
 geomod              0.         0.         0.         0.      
 rgeomod             0.         0.         0.         0.      
 delvto              0.         0.         0.         0.      
 mulu0               1.0000     1.0000     1.0000     1.0000  
 delk1               0.         0.         0.         0.      
 delnfct             0.         0.         0.         0.      
 deltox              0.         0.         0.         0.      
 sa                  0.         0.         0.         0.      
 sb                  0.         0.         0.         0.      
 sd                  0.         0.         0.         0.      
 saeff               0.         0.         0.         0.      
 sbeff               0.         0.         0.         0.      
  
  
                                                              
 element name       35:m1      35:m2      36:m1      36:m2    
 drain               3:net22    3:net22    3:net26    3:net26 
 gate                3:net8     3:net8     3:net14    3:net14 
 source              0:vdd!     0:0        0:vdd!     0:0     
 bulk                0:vdd!     0:0        0:vdd!     0:0     
 model               0:pmos     0:nmos     0:pmos     0:nmos  
 w eff              96.2100u  192.2400u   96.2100u  192.2400u 
 l eff              29.0000n   29.0000n   29.0000n   29.0000n 
 rd eff              0.         0.         0.         0.      
 rs eff              0.         0.         0.         0.      
 cdsat               7.9344f   15.8322f    7.9344f   15.8322f 
 cssat               7.9344f   15.8322f    7.9344f   15.8322f 
 capbd               6.5961f   13.1259f    6.5961f   13.1259f 
 capbs               5.3139f   10.5658f    5.3139f   10.5658f 
 temp               25.0000    25.0000    25.0000    25.0000  
 aic                                                          
 nf                  1.0000     1.0000     1.0000     1.0000  
 min                 0.         0.         0.         0.      
 rbdb               15.0000    15.0000    15.0000    15.0000  
 rbsb               15.0000    15.0000    15.0000    15.0000  
 rbpb                5.0000     5.0000     5.0000     5.0000  
 rbps               15.0000    15.0000    15.0000    15.0000  
 rbpd               15.0000    15.0000    15.0000    15.0000  
 trnqsmod            0.         0.         0.         0.      
 acnqsmod            0.         0.         0.         0.      
 rbodymod            1.0000     1.0000     1.0000     1.0000  
 rgatemod            1.0000     1.0000     1.0000     1.0000  
 geomod              0.         0.         0.         0.      
 rgeomod             0.         0.         0.         0.      
 delvto              0.         0.         0.         0.      
 mulu0               1.0000     1.0000     1.0000     1.0000  
 delk1               0.         0.         0.         0.      
 delnfct             0.         0.         0.         0.      
 deltox              0.         0.         0.         0.      
 sa                  0.         0.         0.         0.      
 sb                  0.         0.         0.         0.      
 sd                  0.         0.         0.         0.      
 saeff               0.         0.         0.         0.      
 sbeff               0.         0.         0.         0.      
  
  
                                                                  
 element name       37:m5       37:m1       37:m0       37:m4     
 drain               0:bl63      0:bl63      0:bl_b63   37:net23  
 gate                0:blpc_b    0:blpc_b    0:blpc_b    0:0      
 source              0:vdd!      0:bl_b63    0:vdd!      0:bl_b63 
 bulk                0:vdd!      0:vdd!      0:vdd!      0:0      
 model               0:pmos      0:pmos      0:pmos      0:nmos   
 w eff               1.7500u     1.7500u     1.7500u     1.9700u  
 l eff              29.0000n    29.0000n    29.0000n    29.0000n  
[...]
    1.86400n      6.6400n  
    1.86500n      7.4071n  
    1.86600n      7.5295n  
    1.86700n      7.2978n  
    1.86800n      7.0660n  
    1.86900n      6.8343n  
    1.87000n      6.2513n  
    1.87100n      5.5183n  
    1.87200n      4.7852n  
    1.87300n      4.0522n  
    1.87400n      4.9177n  
    1.87500n      6.2998n  
    1.87600n      7.2021n  
    1.87700n      6.8233n  
    1.87800n      6.4445n  
    1.87900n      6.0657n  
    1.88000n      5.6869n  
    1.88100n      5.3081n  
    1.88200n      4.9293n  
    1.88300n      4.5505n  
    1.88400n      4.4239n  
    1.88500n      4.8186n  
    1.88600n      5.2133n  
    1.88700n      5.6080n  
    1.88800n      6.0027n  
    1.88900n      6.3974n  
    1.89000n      6.7921n  
    1.89100n      6.8492n  
    1.89200n      6.5452n  
    1.89300n      6.2412n  
    1.89400n      5.9371n  
    1.89500n      5.6331n  
    1.89600n      5.3291n  
    1.89700n      5.0250n  
    1.89800n      4.7210n  
    1.89900n      4.4170n  
    1.90000n      4.6237n  
    1.90100n      5.2042n  
    1.90200n      5.5244n  
    1.90300n      5.5671n  
    1.90400n      5.6099n  
    1.90500n      5.6042n  
    1.90600n      5.5962n  
    1.90700n      5.5883n  
    1.90800n      5.5804n  
    1.90900n      5.5725n  
    1.91000n      5.5646n  
    1.91100n      5.5566n  
    1.91200n      5.5487n  
    1.91300n      5.5543n  
    1.91400n      5.5620n  
    1.91500n      5.5696n  
    1.91600n      5.5773n  
    1.91700n      5.5849n  
    1.91800n      5.5926n  
    1.91900n      5.6003n  
    1.92000n      5.6079n  
    1.92100n      5.6156n  
    1.92200n      5.6233n  
    1.92300n      5.6309n  
    1.92400n      5.6386n  
    1.92500n      5.6387n  
    1.92600n      5.6340n  
    1.92700n      5.6293n  
    1.92800n      5.6246n  
    1.92900n      5.6199n  
    1.93000n      5.6152n  
    1.93100n      5.6105n  
    1.93200n      5.6058n  
    1.93300n      5.6011n  
    1.93400n      5.5964n  
    1.93500n      5.5916n  
    1.93600n      5.5869n  
    1.93700n      5.5822n  
    1.93800n      5.5807n  
    1.93900n      5.5846n  
    1.94000n      5.5885n  
    1.94100n      5.5924n  
    1.94200n      5.5963n  
    1.94300n      5.6002n  
    1.94400n      5.6041n  
    1.94500n      5.6079n  
    1.94600n      5.6118n  
    1.94700n      5.6157n  
    1.94800n      5.6196n  
    1.94900n      5.6235n  
    1.95000n      5.6274n  
    1.95100n      5.6313n  
    1.95200n      5.6352n  
    1.95300n      5.6374n  
    1.95400n      5.6291n  
    1.95500n      5.6208n  
    1.95600n      5.6125n  
    1.95700n      5.6042n  
    1.95800n      5.5958n  
    1.95900n      5.5875n  
    1.96000n      5.5792n  
    1.96100n      5.5709n  
    1.96200n      5.5626n  
    1.96300n      5.5543n  
    1.96400n      5.5459n  
    1.96500n      5.5376n  
    1.96600n      5.5293n  
    1.96700n      5.5210n  
    1.96800n      5.5127n  
    1.96900n      5.5044n  
    1.97000n      5.4960n  
    1.97100n      5.4878n  
    1.97200n      5.4958n  
    1.97300n      5.5037n  
    1.97400n      5.5116n  
    1.97500n      5.5196n  
    1.97600n      5.5275n  
    1.97700n      5.5354n  
    1.97800n      5.5434n  
    1.97900n      5.5513n  
    1.98000n      5.5592n  
    1.98100n      5.5672n  
    1.98200n      5.5751n  
    1.98300n      5.5831n  
    1.98400n      5.5910n  
    1.98500n      5.5989n  
    1.98600n      5.6069n  
    1.98700n      5.6148n  
    1.98800n      5.6227n  
    1.98900n      5.6307n  
    1.99000n      5.6386n  
    1.99100n      5.6465n  
    1.99200n      5.6545n  
    1.99300n      5.6624n  
    1.99400n      5.6704n  
    1.99500n      5.6783n  
    1.99600n      5.6805n  
    1.99700n      5.6727n  
    1.99800n      5.6649n  
    1.99900n      5.6571n  
    2.00000n      5.6493n  
    2.00100n      5.6414n  
    2.00200n      5.6336n  
    2.00300n      5.6258n  
    2.00400n      5.6180n  
    2.00500n      5.6102n  
    2.00600n      5.6024n  
    2.00700n      5.5946n  
    2.00800n      5.5867n  
    2.00900n      5.5789n  
    2.01000n      5.5711n  
    2.01100n      5.5633n  
    2.01200n      5.5555n  
    2.01300n      5.5477n  
    2.01400n      5.5399n  
    2.01500n      5.5320n  
    2.01600n      5.5242n  
    2.01700n      5.5164n  
    2.01800n      5.5086n  
    2.01900n      5.5008n  
    2.02000n      5.4930n  
    2.02100n      5.4851n  
    2.02200n      5.4773n  
    2.02300n      5.4695n  
    2.02400n      5.4617n  
    2.02500n      5.4539n  
    2.02600n      5.4461n  
    2.02700n      5.4547n  
    2.02800n      5.4664n  
    2.02900n      5.4782n  
    2.03000n      5.4899n  
    2.03100n      5.5016n  
    2.03200n      5.5133n  
    2.03300n      5.5251n  
    2.03400n      5.5368n  
    2.03500n      5.5485n  
    2.03600n      5.5603n  
    2.03700n      5.5720n  
    2.03800n      5.5837n  
    2.03900n      5.5954n  
    2.04000n      5.6072n  
    2.04100n      5.6189n  
    2.04200n      5.6306n  
    2.04300n      5.6423n  
    2.04400n      5.6541n  
    2.04500n      5.6658n  
    2.04600n      5.6775n  
    2.04700n      5.6893n  
    2.04800n      5.7010n  
    2.04900n      5.7127n  
    2.05000n      5.7244n  
    2.05100n     21.9662n  
    2.05200n     -8.4555n  
    2.05300n     -1.3873n  
    2.05400n     21.8771n  
    2.05500n     18.9111n  
    2.05600n      4.7691n  
    2.05700n     -9.3730n  
    2.05800n    -13.6654n  
    2.05900n     -7.8247n  
    2.06000n     -1.9840n  
    2.06100n      3.8567n  
    2.06200n      9.6974n  
    2.06300n     15.5381n  
    2.06400n     21.3788n  
    2.06500n     27.2195n  
    2.06600n     18.6655n  
    2.06700n     10.0277n  
    2.06800n      5.1585n  
    2.06900n      5.6039n  
    2.07000n      5.9645n  
    2.07100n      5.9080n  
    2.07200n      5.8516n  
    2.07300n      5.7951n  
    2.07400n      5.7387n  
    2.07500n      5.6822n  
    2.07600n      5.6258n  
    2.07700n      5.5693n  
    2.07800n      5.7558n  
    2.07900n      5.9464n  
    2.08000n      6.1370n  
    2.08100n      6.3276n  
    2.08200n      6.5182n  
    2.08300n      6.7084n  
    2.08400n      6.4986n  
    2.08500n      6.2888n  
    2.08600n      6.0790n  
    2.08700n      5.8691n  
    2.08800n      5.6593n  
    2.08900n      5.4495n  
    2.09000n      5.2397n  
    2.09100n      5.0299n  
    2.09200n      5.1007n  
    2.09300n      5.1866n  
    2.09400n      5.2724n  
    2.09500n      5.3583n  
    2.09600n      5.4441n  
    2.09700n      5.5300n  
    2.09800n      5.6159n  
    2.09900n      5.3652n  
    2.10000n      5.0619n  
    2.10100n      4.0978n  
    2.10200n      8.6066n  
    2.10300n      8.0239n  
    2.10400n      6.9942n  
    2.10500n      4.8739n  
    2.10600n      2.0656n  
    2.10700n      2.5845n  
    2.10800n      3.9405n  
    2.10900n      5.2964n  
    2.11000n      6.6523n  
    2.11100n      8.0083n  
    2.11200n      7.3805n  
    2.11300n      6.7098n  
    2.11400n      6.0392n  
    2.11500n      5.3685n  
    2.11600n      4.6979n  
    2.11700n      4.0273n  
    2.11800n      3.3566n  
    2.11900n      2.6860n  
    2.12000n      2.0154n  
    2.12100n      2.0447n  
    2.12200n      2.6495n  
    2.12300n      3.2542n  
    2.12400n      3.8590n  
    2.12500n      4.4638n  
    2.12600n      5.0686n  
    2.12700n      5.6734n  
    2.12800n      6.2782n  
    2.12900n      6.8830n  
    2.13000n      7.4878n  
    2.13100n      8.0926n  
    2.13200n      7.8083n  
    2.13300n      7.1464n  
    2.13400n      6.4844n  
    2.13500n      5.8225n  
    2.13600n      5.1605n  
    2.13700n      4.4986n  
    2.13800n      3.8366n  
    2.13900n      3.1747n  
    2.14000n      2.5128n  
    2.14100n      1.9602n  
    2.14200n      2.6689n  
    2.14300n      3.3776n  
    2.14400n      4.0863n  
    2.14500n      4.7950n  
    2.14600n      5.5036n  
    2.14700n      6.2123n  
    2.14800n      6.9210n  
    2.14900n      7.6297n  
    2.15000n      8.3384n  
    2.15100n      7.6394n  
    2.15200n      6.8417n  
    2.15300n      6.0440n  
    2.15400n      5.2463n  
    2.15500n      4.4487n  
    2.15600n      3.6510n  
    2.15700n      2.8533n  
    2.15800n      2.0556n  
    2.15900n      2.7086n  
    2.16000n      3.4462n  
    2.16100n      4.1839n  
    2.16200n      4.9215n  
    2.16300n      5.6592n  
    2.16400n      6.3968n  
    2.16500n      7.1344n  
    2.16600n      7.8721n  
    2.16700n      7.8615n  
    2.16800n      4.6694n  
    2.16900n      1.5477n  
    2.17000n      2.6510n  
    2.17100n      3.7543n  
    2.17200n      4.8576n  
    2.17300n      5.9609n  
    2.17400n      7.0643n  
    2.17500n      8.1676n  
    2.17600n      9.1119n  
    2.17700n      7.5486n  
    2.17800n      5.9853n  
    2.17900n      4.4219n  
    2.18000n      2.8586n  
    2.18100n      1.4401n  
    2.18200n      4.8516n  
    2.18300n      7.2139n  
    2.18400n      6.5152n  
    2.18500n      5.8164n  
    2.18600n      5.1177n  
    2.18700n      4.4189n  
    2.18800n      3.7202n  
    2.18900n      3.6718n  
    2.19000n      4.0964n  
    2.19100n      4.5210n  
    2.19200n      4.9456n  
    2.19300n      5.3458n  
    2.19400n      5.6442n  
    2.19500n     11.0231n  
    2.19600n      8.3698n  
    2.19700n    388.0323p  
    2.19800n    989.1430p  
    2.19900n      6.1852n  
    2.20000n      9.4237n  
    2.20100n      5.3090n  
    2.20200n      1.1944n  
    2.20300n      1.1738n  
    2.20400n      5.5132n  
    2.20500n      9.8525n  
    2.20600n     10.3122n  
    2.20700n      6.7887n  
    2.20800n      3.2651n  
    2.20900n   -258.4743p  
    2.21000n      2.3286n  
    2.21100n      6.6407n  
    2.21200n     10.9527n  
    2.21300n      7.6659n  
    2.21400n      2.5515n  
    2.21500n      1.0968n  
    2.21600n      6.4146n  
    2.21700n     11.7324n  
    2.21800n      6.6284n  
    2.21900n      1.1811n  
    2.22000n      2.5282n  
    2.22100n      7.6866n  
    2.22200n      9.3300n  
    2.22300n      8.1800n  
    2.22400n      6.4083n  
    2.22500n      3.3651n  
    2.22600n      1.9099n  
    2.22700n      5.0651n  
    2.22800n      7.1076n  
    2.22900n      6.4931n  
    2.23000n      5.9031n  
    2.23100n      5.5521n  
    2.23200n      5.2010n  
    2.23300n      4.8760n  
    2.23400n      4.7528n  
    2.23500n      4.6296n  
    2.23600n      5.3510n  
    2.23700n      6.9515n  
    2.23800n      7.9613n  
    2.23900n      6.8686n  
    2.24000n      5.7764n  
    2.24100n      4.6857n  
    2.24200n      3.5950n  
    2.24300n      3.4780n  
    2.24400n      3.8499n  
    2.24500n      4.5580n  
    2.24600n      5.8733n  
    2.24700n      7.1769n  
    2.24800n      6.5048n  
    2.24900n      5.8326n  
    2.25000n      5.8777n  
    2.25100n      6.5200n  
    2.25200n      6.9425n  
    2.25300n      6.0181n  
    2.25400n      5.0385n  
    2.25500n      5.6743n  
    2.25600n      6.1644n  
    2.25700n      4.0626n  
    2.25800n    640.8432p  
    2.25900n      2.2542n  
    2.26000n      6.3260n  
    2.26100n      8.0832n  
    2.26200n      5.5929n  
    2.26300n      3.7178n  
    2.26400n      7.6066n  
    2.26500n      5.4384n  
    2.26600n     -4.5802n  
    2.26700n     11.7143n  
    2.26800n      6.3773n  
    2.26900n     -1.9172n  
    2.27000n      5.4748n  
    2.27100n     -2.9181n  
    2.27200n    688.7023p  
    2.27300n      5.5823n  
    2.27400n    396.4883p  
    2.27500n      5.4301n  
    2.27600n     10.4637n  
    2.27700n      7.1382n  
    2.27800n      2.6004n  
    2.27900n    288.7392p  
    2.28000n      3.8061n  
    2.28100n      7.3234n  
    2.28200n     10.5535n  
    2.28300n      7.7891n  
    2.28400n      5.0246n  
    2.28500n      2.2602n  
    2.28600n   -504.3041p  
    2.28700n    390.9683p  
    2.28800n      2.9910n  
    2.28900n      5.5910n  
    2.29000n      8.1910n  
    2.29100n     10.7911n  
    2.29200n     12.5521n  
    2.29300n     10.1510n  
    2.29400n      7.7499n  
    2.29500n      5.3488n  
    2.29600n      2.9478n  
    2.29700n    546.6843p  
    2.29800n     -1.6808n  
    2.29900n    273.3187p  
    2.30000n      2.2274n  
    2.30100n      4.1815n  
    2.30200n      6.1356n  
    2.30300n      8.0897n  
    2.30400n     10.0438n  
    2.30500n     11.9979n  
    2.30600n     11.1926n  
    2.30700n      9.6127n  
    2.30800n      8.0328n  
    2.30900n      6.4529n  
    2.31000n      4.8730n  
    2.31100n      3.2931n  
    2.31200n      1.7132n  
    2.31300n    133.3225p  
    2.31400n     -1.4466n  
    2.31500n   -525.1972p  
    2.31600n    690.4090p  
    2.31700n      1.9060n  
    2.31800n      3.1216n  
    2.31900n      4.3372n  
    2.32000n      5.5528n  
    2.32100n      6.7684n  
    2.32200n      7.9840n  
    2.32300n      9.1997n  
    2.32400n     10.4153n  
    2.32500n     11.6309n  
    2.32600n     12.1148n  
    2.32700n     11.2397n  
    2.32800n     10.3646n  
    2.32900n      9.4895n  
    2.33000n      8.6143n  
    2.33100n      7.7392n  
    2.33200n      6.8641n  
    2.33300n      5.9890n  
    2.33400n      5.1139n  
    2.33500n      4.2387n  
    2.33600n      3.3636n  
    2.33700n      2.4885n  
    2.33800n      1.6134n  
    2.33900n    738.2448p  
    2.34000n   -136.8773p  
    2.34100n     -1.0120n  
    2.34200n     -1.3826n  
    2.34300n   -775.8238p  
    2.34400n   -169.0706p  
    2.34500n    437.6826p  
    2.34600n      1.0444n  
    2.34700n      1.6512n  
    2.34800n      2.2579n  
    2.34900n      2.8647n  
    2.35000n      3.4714n  
    2.35100n      4.0782n  
    2.35200n      4.6850n  
    2.35300n      5.2917n  
    2.35400n      5.8985n  
    2.35500n      6.5052n  
    2.35600n      7.1120n  
    2.35700n      7.7187n  
    2.35800n      8.3255n  
    2.35900n      8.9322n  
    2.36000n      9.5390n  
    2.36100n     10.1457n  
    2.36200n     10.7525n  
    2.36300n     11.3592n  
    2.36400n     11.9660n  
    2.36500n     12.3273n  
    2.36600n     11.8379n  
    2.36700n     11.3484n  
    2.36800n     10.8590n  
    2.36900n     10.3695n  
    2.37000n      9.8800n  
    2.37100n      9.3906n  
    2.37200n      8.9011n  
    2.37300n      8.4117n  
    2.37400n      7.9222n  
    2.37500n      7.4328n  
    2.37600n      6.9433n  
    2.37700n      6.4539n  
    2.37800n      5.9644n  
    2.37900n      5.4750n  
    2.38000n      4.9855n  
    2.38100n      4.4961n  
    2.38200n      4.0066n  
    2.38300n      3.5172n  
    2.38400n      3.0277n  
    2.38500n      2.5383n  
    2.38600n      2.0488n  
    2.38700n      1.5593n  
    2.38800n      1.0699n  
    2.38900n    580.4419p  
    2.39000n     90.9891p  
    2.39100n   -398.4637p  
    2.39200n   -887.9165p  
    2.39300n     -1.3774n  
    2.39400n     -1.2901n  
    2.39500n   -877.7391p  
    2.39600n   -465.4059p  
    2.39700n    -53.0727p  
    2.39800n    359.2606p  
    2.39900n    771.5938p  
    2.40000n      1.1839n  
    2.40100n      1.5963n  
    2.40200n      2.0086n  
    2.40300n      2.4209n  
    2.40400n      2.8333n  
    2.40500n      3.2456n  
    2.40600n      3.6579n  
    2.40700n      4.0703n  
    2.40800n      4.4826n  
    2.40900n      4.8949n  
    2.41000n      5.3073n  
    2.41100n      5.7196n  
    2.41200n      6.1319n  
    2.41300n      6.5443n  
    2.41400n      6.9566n  
    2.41500n      7.3689n  
    2.41600n      7.7813n  
    2.41700n      8.1936n  
    2.41800n      8.6059n  
    2.41900n      9.0183n  
    2.42000n      9.4306n  
    2.42100n      9.8429n  
    2.42200n     10.2553n  
    2.42300n     10.6676n  
    2.42400n     11.0799n  
    2.42500n     11.4923n  
    2.42600n     11.9046n  
    2.42700n     12.3169n  
    2.42800n     12.1499n  
    2.42900n     11.8030n  
    2.43000n     11.4561n  
    2.43100n     11.1091n  
    2.43200n     10.7622n  
    2.43300n     10.4153n  
    2.43400n     10.0684n  
    2.43500n      9.7214n  
    2.43600n      9.3745n  
    2.43700n      9.0276n  
    2.43800n      8.6807n  
    2.43900n      8.3337n  
    2.44000n      7.9868n  
    2.44100n      7.6399n  
    2.44200n      7.2930n  
    2.44300n      6.9460n  
    2.44400n      6.5991n  
    2.44500n      6.2522n  
    2.44600n      5.9053n  
    2.44700n      5.5583n  
    2.44800n      5.2114n  
    2.44900n      4.8645n  
    2.45000n      4.5176n  
    2.45100n      4.1706n  
    2.45200n      3.8237n  
    2.45300n      3.4768n  
    2.45400n      3.1299n  
    2.45500n      2.7830n  
    2.45600n      2.4360n  
    2.45700n      2.0891n  
    2.45800n      1.7422n  
    2.45900n      1.3953n  
    2.46000n      1.0483n  
    2.46100n    701.4062p  
    2.46200n    354.4818p  
    2.46300n      7.5574p  
    2.46400n   -339.3670p  
    2.46500n   -686.2913p  
    2.46600n     -1.0332n  
    2.46700n     -1.3801n  
    2.46800n     -1.3688n  
    2.46900n   -935.8627p  
    2.47000n   -502.8968p  
    2.47100n    -69.9309p  
    2.47200n    363.0350p  
    2.47300n    796.0009p  
    2.47400n      1.2290n  
    2.47500n      1.6619n  
    2.47600n      2.0949n  
    2.47700n      2.5279n  
    2.47800n      2.9608n  
    2.47900n      3.3938n  
    2.48000n      3.8268n  
    2.48100n      4.2597n  
    2.48200n      4.6927n  
    2.48300n      5.1257n  
    2.48400n      5.5586n  
    2.48500n      5.9916n  
    2.48600n      6.4246n  
    2.48700n      6.8575n  
    2.48800n      7.2905n  
    2.48900n      7.7235n  
    2.49000n      8.1564n  
    2.49100n      8.5894n  
    2.49200n      9.0224n  
    2.49300n      9.4553n  
    2.49400n      9.8883n  
    2.49500n     10.3213n  
    2.49600n     10.7542n  
    2.49700n     11.1872n  
    2.49800n     11.6201n  
    2.49900n     12.0531n  
    2.50000n     12.4861n  
y
 read_1_diff_delay= 477.7669p  targ=   1.0028n   trig= 525.0000p
 wl0_delay= 316.2173p  targ= 841.2173p   trig= 525.0000p
 read_0_diff_delay= 467.2661p  targ=   1.9923n   trig=   1.5250n
 wl255_delay= 316.2924p  targ=   1.8413n   trig=   1.5250n

          ***** job concluded
1****** HSPICE -- F-2011.09-SP2 32-BIT (Feb 27 2012) linux ******               
 ******  
 ee-313 sense amplifier analysis

  ******  job statistics summary tnom=  25.000 temp=  27.000 *****
  
  
 ******  Machine Information  ******
 CPU:
 model name	: Quad-Core AMD Opteron(tm) Processor 2384
 cpu MHz	: 2700.000
  
 OS:
 Linux version 3.2.0-36-generic (buildd@allspice) (gcc version 4.6.3 (Ubuntu/Lin
 aro 4.6.3-1ubuntu5) ) #57-Ubuntu SMP Tue Jan 8 21:44:52 UTC 2013


  ******  HSPICE Threads Information  ******

  Command Line Threads Count :     1
  Available CPU Count        :     8
  Actual Threads Count       :     1


  ******  Circuit Statistics  ******
  # nodes       =     820 # elements   =     216
  # resistors   =       1 # capacitors =      26 # inductors   =       0
  # mutual_inds =       0 # vccs       =       0 # vcvs        =       0
  # cccs        =       0 # ccvs       =       0 # volt_srcs   =       6
  # curr_srcs   =       0 # diodes     =       0 # bjts        =       0
  # jfets       =       0 # mosfets    =     183 # U elements  =       0
  # T elements  =       0 # W elements =       0 # B elements  =       0
  # S elements  =       0 # P elements =       0 # va device   =       0
  # vector_srcs =       0


  ******  Runtime Statistics (seconds)  ******

  analysis           time    # points   tot. iter  conv.iter
  op point           0.02           1          20
  transient          1.34        2501        4366         658 rev=       113
  readin             0.02
  errchk             0.04
  setup              0.02
  output             0.00


           peak memory used         91.09 megabytes
           total cpu time            1.46 seconds
           total elapsed time        1.74 seconds
           job started at     18:44:53 02/27/2013
           job ended   at     18:44:55 02/27/2013


 lic: Release hspice token(s) 
