 ****** HSPICE -- F-2011.09-SP2 32-BIT (Feb 27 2012) linux ******               
  Copyright (C) 2011 Synopsys, Inc. All Rights Reserved.                        
  Unpublished-rights reserved under US copyright laws.
  This program is protected by law and is subject to the
  terms and conditions of the license agreement from Synopsys.
  Use of this program is your acceptance to be bound by the
  license agreement. HSPICE is the trademark of Synopsys, Inc.
  Input File: task3.sp                                                          
  Command line options: -i task3.sp -o task3.lis
 lic:  
 lic: FLEXlm: v10.8 
 lic: USER:   ronaldv              HOSTNAME: corn28.stanford.edu 
 lic: HOSTID: 001b213a6575         PID:      17569 
 lic: Using FLEXlm license file: 
 lic: 27000@cadlic0.stanford.edu 
 lic: Checkout 1 hspice 
 lic: License/Maintenance for hspice will expire on 16-nov-2013/2012.06 
 lic: 4(in_use)/100(total) FLOATING license(s) on SERVER cadlic0.stanford.edu 
 lic:   
 Init: read install configuration file: /usr/class/ee/synopsys/hspice/F-2011.09-SP2/hspice/meta.cfg

 **warning**  runlvl smaller than 5, reset to 5  when accurate turned on
 scientific notation:
 a=10**-18  f=10**-15  p=10**-12  n=10**-9  u=10**-6
 m=10**-3   k=10**3    x=10**6    g=10**9 
  **warning** (./project.task3.ckt:5) Global net name, "vdd", in subckt pin list. The pin will be connected to the local net. Recommend to not use global net names in subckt pin lists.

 **warning**  runlvl smaller than 5, reset to 5  when accurate turned on
1****** HSPICE -- F-2011.09-SP2 32-BIT (Feb 27 2012) linux ******               
 ******  
 * file: task3.sp

  ******  circuit name directory
 circuit number to circuit name directory
   number circuitname                     definition         multiplier
        0 main circuit
        1 xcbl.                           schem_mc_schematic
                                                                 1.00 
        2 xi5.                            schem_mc_schematic
                                                               254.00 
        3 xcbr.                           schem_mc_schematic
                                                                 1.00 
        4 xi4.                            schem_mc_schematic
                                                               254.00 
        5 xi3.                            schem_mc_schematic
                                                                64.52k
        6 xi2.                            schem_mc_schematic
                                                               254.00 
        7 xctr.                           schem_mc_schematic
                                                                 1.00 
        8 xi1.                            schem_mc_schematic
                                                               254.00 
        9 xctl.                           schem_mc_schematic
                                                                 1.00 
       10 xwritel.                        write_schematic    1.00 
       11 xwritem.                        write_schematic  254.00 
       12 xwriter.                        write_schematic    1.00 
       13 xi17.                           decoder_schematic
                                                                 1.00 
       14 xclk_gen.                       clk_gen            1.00 
       15 xa0_gen.                        a0_gen             1.00 
       16 xa255_gen.                      a255_gen           1.00 
       17 xblpc_b_gen.                    blpc_b_gen         1.00 
       18 xwritel.xu0.                    inv_pcell_0        1.00 
       19 xwritel.xu2.                    inv_pcell_1        1.00 
       20 xwritel.xu1.                    inv_pcell_1        1.00 
       21 xwritem.xu0.                    inv_pcell_0      254.00 
       22 xwritem.xu2.                    inv_pcell_1      254.00 
       23 xwritem.xu1.                    inv_pcell_1      254.00 
       24 xwriter.xu0.                    inv_pcell_0        1.00 
       25 xwriter.xu2.                    inv_pcell_1        1.00 
       26 xwriter.xu1.                    inv_pcell_1        1.00 
       27 xi17.xi1.                       predecode_416_schematic
                                                                 1.00 
       28 xi17.xi2.                       decode_stage_schematic
                                                                 1.00 
       29 xi17.xi0.                       predecode_24_schematic
                                                                 1.00 
       30 xclk_gen.xgen.                  signal_gen         1.00 
       31 xa0_gen.xgen.                   signal_gen         1.00 
       32 xa255_gen.xgen.                 signal_gen         1.00 
       33 xblpc_b_gen.xgen.               signal_gen         1.00 
       34 xi17.xi1.xi4.                   nand_pcell_0       1.00 
       35 xi17.xi1.xi6.                   nand_pcell_0       1.00 
       36 xi17.xi1.xu18.                  inv_pcell_123      1.00 
       37 xi17.xi1.xu16.                  inv_pcell_123      1.00 
       38 xi17.xi1.xu17.                  inv_pcell_4        1.00 
       39 xi17.xi1.xu4.                   inv_pcell_4        1.00 
       40 xi17.xi1.xi7.                   nand_pcell_5       1.00 
       41 xi17.xi1.xi5.                   nand_pcell_5       1.00 
       42 xi17.xi1.xu20.                  inv_pcell_67       1.00 
       43 xi17.xi1.xu8.                   inv_pcell_67       1.00 
       44 xi17.xi1.xu12.                  inv_pcell_8        1.00 
       45 xi17.xi1.xu23.                  inv_pcell_8        1.00 
       46 xi17.xi1.xu19.                  inv_pcell_910      1.00 
       47 xi17.xi1.xu21.                  inv_pcell_910      1.00 
       48 xi17.xi1.xu24.                  inv_pcell_1112     1.00 
       49 xi17.xi1.xu22.                  inv_pcell_1112     1.00 
       50 xi17.xi2.xi10.                  nand_pcell_13      1.00 
       51 xi17.xi2.xi8.                   nand_pcell_13      1.00 
       52 xi17.xi2.xu10.                  inv_pcell_1415     1.00 
       53 xi17.xi2.xu12.                  inv_pcell_1415     1.00 
       54 xi17.xi2.xi9.                   nand_pcell_1617    1.00 
       55 xi17.xi2.xi11.                  nand_pcell_1617    1.00 
       56 xi17.xi2.xu16.                  inv_pcell_18       1.00 
       57 xi17.xi2.xu11.                  inv_pcell_18       1.00 
       58 xi17.xi0.xi0.                   nand3              1.00 
       59 xi17.xi0.xi3.                   nand3              1.00 
       60 xi17.xi0.xi2.                   nand3              1.00 
       61 xi17.xi0.xi1.                   nand3              1.00 
       62 xi17.xi0.xu1.                   inv_pcell_19       1.00 
       63 xi17.xi0.xu2.                   inv_pcell_19       1.00 
       64 xi17.xi0.xu3.                   inv_pcell_19       1.00 
       65 xi17.xi0.xu0.                   inv_pcell_19       1.00 
       66 xclk_gen.xgen.x_0.              inv_chain_stimulus
                                                                 1.00 
       67 xa0_gen.xgen.x_0.               inv_chain_stimulus
                                                                 1.00 
       68 xa255_gen.xgen.x_0.             inv_chain_stimulus
                                                                 1.00 
       69 xblpc_b_gen.xgen.x_0.           inv_chain_stimulus
                                                                 1.00 
       70 xclk_gen.xgen.x_0.x_0.          inv_stimulus       1.00 
       71 xclk_gen.xgen.x_0.x_1.          inv_stimulus       4.00 
       72 xclk_gen.xgen.x_0.x_2.          inv_stimulus      16.00 
       73 xclk_gen.xgen.x_0.x_3.          inv_stimulus      64.00 
       74 xa0_gen.xgen.x_0.x_0.           inv_stimulus       1.00 
       75 xa0_gen.xgen.x_0.x_1.           inv_stimulus       4.00 
       76 xa0_gen.xgen.x_0.x_2.           inv_stimulus      16.00 
       77 xa0_gen.xgen.x_0.x_3.           inv_stimulus      64.00 
       78 xa255_gen.xgen.x_0.x_0.         inv_stimulus       1.00 
       79 xa255_gen.xgen.x_0.x_1.         inv_stimulus       4.00 
       80 xa255_gen.xgen.x_0.x_2.         inv_stimulus      16.00 
       81 xa255_gen.xgen.x_0.x_3.         inv_stimulus      64.00 
       82 xblpc_b_gen.xgen.x_0.x_0.       inv_stimulus       1.00 
       83 xblpc_b_gen.xgen.x_0.x_1.       inv_stimulus       4.00 
       84 xblpc_b_gen.xgen.x_0.x_2.       inv_stimulus      16.00 
       85 xblpc_b_gen.xgen.x_0.x_3.       inv_stimulus      64.00 


 circuit parameter definitions
  parameter          =  value 

     0:supply                                                  =   1.0000       
     0:tcyc                                                    =   1.0000n      
     0:trf                                                     =  50.0000p      
     0:vsense                                                  = 150.0000m      
     0:td                                                      = 180.0000p      
     0:td_ck2wlr                                               =   0.           
     0:td_ck2wlf                                               =   0.           
     0:td_wl2bl0                                               =   0.           
     0:td_ck2bl0                                               =   0.           
     0:td_wl2bl63                                              =   0.           
     0:td_ck2bl63                                              =   0.           
     0:wl_pw                                                   =   0.           
     0:idsat                                                   =   0.           
     0:mem_core_power                                          =   0.           
     0:blpc_b_power                                            =   0.           
    58:nl                                                      =   2.0000       
    58:nw                                                      =   5.0000       
    58:nm                                                      =   1.0000       
    58:pl                                                      =   2.0000       
    58:pw                                                      =   7.0000       
    58:pm                                                      =   1.0000       
    70:wp                                                      =  24.0000       
    70:lp                                                      =   2.0000       
    70:wn                                                      =   8.0000       
    70:ln                                                      =   2.0000       
    71:wp                                                      =  24.0000       
    71:lp                                                      =   2.0000       
    71:wn                                                      =   8.0000       
    71:ln                                                      =   2.0000       
    72:wp                                                      =  24.0000       
    72:lp                                                      =   2.0000       
    72:wn                                                      =   8.0000       
    72:ln                                                      =   2.0000       
    73:wp                                                      =  24.0000       
    73:lp                                                      =   2.0000       
    73:wn                                                      =   8.0000       
    73:ln                                                      =   2.0000       
    74:wp                                                      =  24.0000       
    74:lp                                                      =   2.0000       
    74:wn                                                      =   8.0000       
    74:ln                                                      =   2.0000       
    75:wp                                                      =  24.0000       
    75:lp                                                      =   2.0000       
    75:wn                                                      =   8.0000       
    75:ln                                                      =   2.0000       
    76:wp                                                      =  24.0000       
    76:lp                                                      =   2.0000       
    76:wn                                                      =   8.0000       
    76:ln                                                      =   2.0000       
    77:wp                                                      =  24.0000       
    77:lp                                                      =   2.0000       
    77:wn                                                      =   8.0000       
    77:ln                                                      =   2.0000       
    78:wp                                                      =  24.0000       
    78:lp                                                      =   2.0000       
    78:wn                                                      =   8.0000       
    78:ln                                                      =   2.0000       
    79:wp                                                      =  24.0000       
    79:lp                                                      =   2.0000       
    79:wn                                                      =   8.0000       
    79:ln                                                      =   2.0000       
    80:wp                                                      =  24.0000       
    80:lp                                                      =   2.0000       
    80:wn                                                      =   8.0000       
    80:ln                                                      =   2.0000       
    81:wp                                                      =  24.0000       
    81:lp                                                      =   2.0000       
    81:wn                                                      =   8.0000       
    81:ln                                                      =   2.0000       
    82:wp                                                      =  24.0000       
    82:lp                                                      =   2.0000       
    82:wn                                                      =   8.0000       
    82:ln                                                      =   2.0000       
    83:wp                                                      =  24.0000       
    83:lp                                                      =   2.0000       
    83:wn                                                      =   8.0000       
    83:ln                                                      =   2.0000       
    84:wp                                                      =  24.0000       
    84:lp                                                      =   2.0000       
    84:wn                                                      =   8.0000       
    84:ln                                                      =   2.0000       
    85:wp                                                      =  24.0000       
    85:lp                                                      =   2.0000       
    85:wn                                                      =   8.0000       
    85:ln                                                      =   2.0000       




 constants  - tnom         kt           vt           gapsi        ni
            298.15000    4.1163e-21    25.69184m     1.11562    1.2565e+16 
  **warning** (/usr/class/ee313/ee313_spice_header.h:18) Both nodes of element vgnd are connected together; Line ignored.
  **info** (/usr/class/ee313/project/stimulus.sp:38) DC voltage reset to initial transient source value              in source       14:vsrc                new dc=  0.0000D+00
 ** warning** associated with encrypted blocks were suppressed

1****** HSPICE -- F-2011.09-SP2 32-BIT (Feb 27 2012) linux ******               
 ******  
 * file: task3.sp

  ******  circuit element summary tnom=  25.000 temp=  25.000 *****


 **** capacitors
  
  
                                                              
 element name        1:c2       1:c1       1:c0       2:c2    
 node1               0:bl0      0:bl_b0    0:wl255    0:net57 
 node2               0:0        0:0        0:0        0:0     
 model                                                        
 cap eff            88.0000a   88.0000a  140.0000a   22.3520f 
 tc1                 0.         0.         0.         0.      
 tc2                 0.         0.         0.         0.      
 scale               1.0000     1.0000     1.0000     1.0000  
 ic                  0.         0.         0.         0.      
 m                   1.0000     1.0000     1.0000   254.0000  
 w                   0.         0.         0.         0.      
 l                   0.         0.         0.         0.      
 temp               25.0000    25.0000    25.0000    25.0000  
  
  
                                                               
 element name        2:c1       2:c0       3:c2       3:c1     
 node1               0:net56    0:wl255    0:bl63     0:bl_b63 
 node2               0:0        0:0        0:0        0:0      
 model                                                         
 cap eff            22.3520f   35.5600f   88.0000a   88.0000a  
 tc1                 0.         0.         0.         0.       
 tc2                 0.         0.         0.         0.       
 scale               1.0000     1.0000     1.0000     1.0000   
 ic                  0.         0.         0.         0.       
 m                 254.0000   254.0000     1.0000     1.0000   
 w                   0.         0.         0.         0.       
 l                   0.         0.         0.         0.       
 temp               25.0000    25.0000    25.0000    25.0000   
  
  
                                                               
 element name        3:c0       4:c2       4:c1        5:c2    
 node1               0:wl255    0:bl63     0:bl_b63    0:net57 
 node2               0:0        0:0        0:0         0:0     
 model                                                         
 cap eff           140.0000a   22.3520f   22.3520f     5.6774p 
 tc1                 0.         0.         0.          0.      
 tc2                 0.         0.         0.          0.      
 scale               1.0000     1.0000     1.0000      1.0000  
 ic                  0.         0.         0.          0.      
 m                   1.0000   254.0000   254.0000     64.5160k 
 w                   0.         0.         0.          0.      
 l                   0.         0.         0.          0.      
 temp               25.0000    25.0000    25.0000     25.0000  
  
  
                                                              
 element name        5:c1       6:c2       6:c1       7:c2    
 node1               0:net56    0:bl0      0:bl_b0    0:bl63  
 node2               0:0        0:0        0:0        0:0     
 model                                                        
 cap eff             5.6774p   22.3520f   22.3520f   88.0000a 
 tc1                 0.         0.         0.         0.      
 tc2                 0.         0.         0.         0.      
 scale               1.0000     1.0000     1.0000     1.0000  
 ic                  0.         0.         0.         0.      
 m                  64.5160k  254.0000   254.0000     1.0000  
 w                   0.         0.         0.         0.      
 l                   0.         0.         0.         0.      
 temp               25.0000    25.0000    25.0000    25.0000  
  
  
                                                               
 element name        7:c1        7:c0       8:c2       8:c1    
 node1               0:bl_b63    0:wl0      0:net57    0:net56 
 node2               0:0         0:0        0:0        0:0     
 model                                                         
 cap eff            88.0000a   140.0000a   22.3520f   22.3520f 
 tc1                 0.          0.         0.         0.      
 tc2                 0.          0.         0.         0.      
 scale               1.0000      1.0000     1.0000     1.0000  
 ic                  0.          0.         0.         0.      
 m                   1.0000      1.0000   254.0000   254.0000  
 w                   0.          0.         0.         0.      
 l                   0.          0.         0.         0.      
 temp               25.0000     25.0000    25.0000    25.0000  
  
  
                                                              
 element name        8:c0       9:c2       9:c1       9:c0    
 node1               0:wl0      0:bl0      0:bl_b0    0:wl0   
 node2               0:0        0:0        0:0        0:0     
 model                                                        
 cap eff            35.5600f   88.0000a   88.0000a  140.0000a 
 tc1                 0.         0.         0.         0.      
 tc2                 0.         0.         0.         0.      
 scale               1.0000     1.0000     1.0000     1.0000  
 ic                  0.         0.         0.         0.      
 m                 254.0000     1.0000     1.0000     1.0000  
 w                   0.         0.         0.         0.      
 l                   0.         0.         0.         0.      
 temp               25.0000    25.0000    25.0000    25.0000  
  
  
                                           
 element name       13:c1         13:c0    
 node1              13:pdec_255   13:pdec  
 node2               0:0           0:0     
 model                                     
 cap eff            22.5000f      22.5000f 
 tc1                 0.            0.      
 tc2                 0.            0.      
 scale               1.0000        1.0000  
 ic                  0.            0.      
 m                   1.0000        1.0000  
 w                   0.            0.      
 l                   0.            0.      
 temp               25.0000       25.0000  


 **** voltage-controlled voltage sources
      name        +             -          dimension  function  scale
       30:e_0            30:net_3           0:0              1      poly       1.    
       31:e_0            31:net_3           0:0              1      poly       1.    
       32:e_0            32:net_3           0:0              1      poly       1.    
       33:e_0            33:net_3           0:0              1      poly       1.    


 **** current-controlled current sources
      name        +             -          dimension  function  multiplier
       30:f_0            30:net_4           0:0              1      poly       1.    
       30:f_1            30:net_4           0:0              1      poly       1.    
       31:f_0            31:net_4           0:0              1      poly       1.    
       31:f_1            31:net_4           0:0              1      poly       1.    
       32:f_0            32:net_4           0:0              1      poly       1.    
       32:f_1            32:net_4           0:0              1      poly       1.    
       33:f_0            33:net_4           0:0              1      poly       1.    
       33:f_1            33:net_4           0:0              1      poly       1.    


 **** independent sources

     name         node1        node2      dc volt    ac mag    ac phase    type
  v_supply  vdd               0                    1.0000     0.         0.      dc   
  v_supply1  vdd!              0                    1.0000     0.         0.      dc   
 xclk_gen.vsrc xclk_gen.src               0                    0.         0.         0.      pulse
             initial value     0.     
             pulsed value.     1.0000 
             delay time...   500.0000p
             risetime.....    50.0000p
             falltime.....    50.0000p
             width........   450.0000p
             period.......     1.0000n

 xa0_gen.vsrc xa0_gen.src               0                    0.         0.         0.      pulse
             initial value     0.     
             pulsed value.     1.0000 
             delay time...   375.0000p
             risetime.....    50.0000p
             falltime.....    50.0000p
             width........   950.0000p
             period.......     2.0000n

 xa255_gen.vsrc xa255_gen.src               0                    0.         0.         0.      pulse
             initial value     0.     
             pulsed value.     1.0000 
             delay time...     1.3750n
             risetime.....    50.0000p
             falltime.....    50.0000p
             width........   950.0000p
             period.......     2.0000n

 xblpc_b_gen.vsrc xblpc_b_gen.src               0                    0.         0.         0.      pulse
             initial value     0.     
             pulsed value.     1.0000 
             delay time...   630.0000p
             risetime.....    50.0000p
             falltime.....    50.0000p
             width........   550.0000p
             period.......     1.0000n

 xclk_gen.xgen.v_monitor xclk_gen.xgen.net_4             0                    1.0000     0.         0.      dc   
 xclk_gen.xgen.v_sense xclk_gen.xgen.net_3             ck                   0.         0.         0.      dc   
 xa0_gen.xgen.v_monitor xa0_gen.xgen.net_4             0                    1.0000     0.         0.      dc   
 xa0_gen.xgen.v_sense xa0_gen.xgen.net_3             a0                   0.         0.         0.      dc   
 xa255_gen.xgen.v_monitor xa255_gen.xgen.net_4             0                    1.0000     0.         0.      dc   
 xa255_gen.xgen.v_sense xa255_gen.xgen.net_3             a255                 0.         0.         0.      dc   
 xblpc_b_gen.xgen.v_monitor xblpc_b_gen.xgen.net_4             0                    1.0000     0.         0.      dc   
 xblpc_b_gen.xgen.v_sense xblpc_b_gen.xgen.net_3             blpc_b               0.         0.         0.      dc   
 xclk_gen.xgen.x_0.x_0.vstimulus_supply xclk_gen.xgen.x_0.x_0.vdd_stimulus      0                    1.0000     0.         0.      dc   
 xclk_gen.xgen.x_0.x_1.vstimulus_supply xclk_gen.xgen.x_0.x_1.vdd_stimulus      0                    1.0000     0.         0.      dc   
 xclk_gen.xgen.x_0.x_2.vstimulus_supply xclk_gen.xgen.x_0.x_2.vdd_stimulus      0                    1.0000     0.         0.      dc   
 xclk_gen.xgen.x_0.x_3.vstimulus_supply xclk_gen.xgen.x_0.x_3.vdd_stimulus      0                    1.0000     0.         0.      dc   
 xa0_gen.xgen.x_0.x_0.vstimulus_supply xa0_gen.xgen.x_0.x_0.vdd_stimulus      0                    1.0000     0.         0.      dc   
 xa0_gen.xgen.x_0.x_1.vstimulus_supply xa0_gen.xgen.x_0.x_1.vdd_stimulus      0                    1.0000     0.         0.      dc   
 xa0_gen.xgen.x_0.x_2.vstimulus_supply xa0_gen.xgen.x_0.x_2.vdd_stimulus      0                    1.0000     0.         0.      dc   
 xa0_gen.xgen.x_0.x_3.vstimulus_supply xa0_gen.xgen.x_0.x_3.vdd_stimulus      0                    1.0000     0.         0.      dc   
 xa255_gen.xgen.x_0.x_0.vstimulus_supply xa255_gen.xgen.x_0.x_0.vdd_stimulus      0                    1.0000     0.         0.      dc   
 xa255_gen.xgen.x_0.x_1.vstimulus_supply xa255_gen.xgen.x_0.x_1.vdd_stimulus      0                    1.0000     0.         0.      dc   
 xa255_gen.xgen.x_0.x_2.vstimulus_supply xa255_gen.xgen.x_0.x_2.vdd_stimulus      0                    1.0000     0.         0.      dc   
 xa255_gen.xgen.x_0.x_3.vstimulus_supply xa255_gen.xgen.x_0.x_3.vdd_stimulus      0                    1.0000     0.         0.      dc   
 xblpc_b_gen.xgen.x_0.x_0.vstimulus_supply xblpc_b_gen.xgen.x_0.x_0.vdd_stimulus      0                    1.0000     0.         0.      dc   
 xblpc_b_gen.xgen.x_0.x_1.vstimulus_supply xblpc_b_gen.xgen.x_0.x_1.vdd_stimulus      0                    1.0000     0.         0.      dc   
 xblpc_b_gen.xgen.x_0.x_2.vstimulus_supply xblpc_b_gen.xgen.x_0.x_2.vdd_stimulus      0                    1.0000     0.         0.      dc   
 xblpc_b_gen.xgen.x_0.x_3.vstimulus_supply xblpc_b_gen.xgen.x_0.x_3.vdd_stimulus      0                    1.0000     0.         0.      dc   


 **** mosfets


 **** BSIM4 Model (Level 54)
  
  
                                                              
 element name        1:m5       1:m4       1:m1       1:m0    
 drain               1:bit      1:bit_b    0:bl_b0    0:bl0   
 gate                1:bit_b    1:bit      0:wl255    0:wl255 
 source              0:0        0:0        1:bit_b    1:bit   
 bulk                0:0        0:0        0:0        0:0     
 model               0:nmos     0:nmos     0:nmos     0:nmos  
 w eff             122.0000n  122.0000n   78.0000n   78.0000n 
 l eff              29.0000n   29.0000n   29.0000n   29.0000n 
 rd eff              0.         0.         0.         0.      
 rs eff              0.         0.         0.         0.      
 cdsat              11.4887a   11.4887a    7.8700a    7.8700a 
 cssat              11.4887a   11.4887a    7.8700a    7.8700a 
 capbd             178.5462a  178.5462a  133.6681a  133.6681a 
 capbs             152.1990a  152.1990a  116.1033a  116.1033a 
 temp               25.0000    25.0000    25.0000    25.0000  
 aic                                                          
 nf                  1.0000     1.0000     1.0000     1.0000  
 min                 0.         0.         0.         0.      
 rbdb               15.0000    15.0000    15.0000    15.0000  
 rbsb               15.0000    15.0000    15.0000    15.0000  
 rbpb                5.0000     5.0000     5.0000     5.0000  
 rbps               15.0000    15.0000    15.0000    15.0000  
 rbpd               15.0000    15.0000    15.0000    15.0000  
 trnqsmod            0.         0.         0.         0.      
 acnqsmod            0.         0.         0.         0.      
 rbodymod            1.0000     1.0000     1.0000     1.0000  
 rgatemod            1.0000     1.0000     1.0000     1.0000  
 geomod              0.         0.         0.         0.      
 rgeomod             0.         0.         0.         0.      
 delvto              0.         0.         0.         0.      
 mulu0               1.0000     1.0000     1.0000     1.0000  
 delk1               0.         0.         0.         0.      
 delnfct             0.         0.         0.         0.      
 deltox              0.         0.         0.         0.      
 sa                  0.         0.         0.         0.      
 sb                  0.         0.         0.         0.      
 sd                  0.         0.         0.         0.      
 saeff               0.         0.         0.         0.      
 sbeff               0.         0.         0.         0.      
  
  
                                                              
 element name        1:m2       1:m3       2:m5       2:m4    
 drain               1:bit_b    1:bit      2:bit      2:bit_b 
 gate                1:bit      1:bit_b    2:bit_b    2:bit   
 source              0:vdd      0:vdd      0:0        0:0     
 bulk                0:vdd!     0:vdd!     0:0        0:0     
 model               0:pmos     0:pmos     0:nmos     0:nmos  
 w eff              78.0000n   78.0000n   30.9880u   30.9880u 
 l eff              29.0000n   29.0000n   29.0000n   29.0000n 
 rd eff              0.         0.         0.         0.      
 rs eff              0.         0.         0.         0.      
 cdsat               7.8700a    7.8700a    2.9181f    2.9181f 
 cssat               7.8700a    7.8700a    2.9181f    2.9181f 
 capbd             133.6681a  133.6681a  178.5462a  178.5462a 
 capbs             116.1033a  116.1033a  152.1990a  152.1990a 
 temp               25.0000    25.0000    25.0000    25.0000  
 aic                                                          
 nf                  1.0000     1.0000     1.0000     1.0000  
 min                 0.         0.         0.         0.      
 rbdb               15.0000    15.0000    15.0000    15.0000  
 rbsb               15.0000    15.0000    15.0000    15.0000  
 rbpb                5.0000     5.0000     5.0000     5.0000  
 rbps               15.0000    15.0000    15.0000    15.0000  
 rbpd               15.0000    15.0000    15.0000    15.0000  
 trnqsmod            0.         0.         0.         0.      
 acnqsmod            0.         0.         0.         0.      
 rbodymod            1.0000     1.0000     1.0000     1.0000  
 rgatemod            1.0000     1.0000     1.0000     1.0000  
 geomod              0.         0.         0.         0.      
 rgeomod             0.         0.         0.         0.      
 delvto              0.         0.         0.         0.      
 mulu0               1.0000     1.0000     1.0000     1.0000  
 delk1               0.         0.         0.         0.      
 delnfct             0.         0.         0.         0.      
 deltox              0.         0.         0.         0.      
 sa                  0.         0.         0.         0.      
 sb                  0.         0.         0.         0.      
 sd                  0.         0.         0.         0.      
 saeff               0.         0.         0.         0.      
 sbeff               0.         0.         0.         0.      
  
  
                                                              
 element name        2:m1       2:m0       2:m2       2:m3    
 drain               0:net56    0:net57    2:bit_b    2:bit   
 gate                0:wl255    0:wl255    2:bit      2:bit_b 
 source              2:bit_b    2:bit      0:vdd      0:vdd   
 bulk                0:0        0:0        0:vdd!     0:vdd!  
 model               0:nmos     0:nmos     0:pmos     0:pmos  
 w eff              19.8120u   19.8120u   19.8120u   19.8120u 
 l eff              29.0000n   29.0000n   29.0000n   29.0000n 
 rd eff              0.         0.         0.         0.      
 rs eff              0.         0.         0.         0.      
 cdsat               1.9990f    1.9990f    1.9990f    1.9990f 
 cssat               1.9990f    1.9990f    1.9990f    1.9990f 
 capbd             133.6681a  133.6681a  133.6681a  133.6681a 
 capbs             116.1033a  116.1033a  116.1033a  116.1033a 
 temp               25.0000    25.0000    25.0000    25.0000  
 aic                                                          
 nf                  1.0000     1.0000     1.0000     1.0000  
 min                 0.         0.         0.         0.      
 rbdb               15.0000    15.0000    15.0000    15.0000  
 rbsb               15.0000    15.0000    15.0000    15.0000  
 rbpb                5.0000     5.0000     5.0000     5.0000  
 rbps               15.0000    15.0000    15.0000    15.0000  
 rbpd               15.0000    15.0000    15.0000    15.0000  
 trnqsmod            0.         0.         0.         0.      
 acnqsmod            0.         0.         0.         0.      
 rbodymod            1.0000     1.0000     1.0000     1.0000  
 rgatemod            1.0000     1.0000     1.0000     1.0000  
 geomod              0.         0.         0.         0.      
 rgeomod             0.         0.         0.         0.      
 delvto              0.         0.         0.         0.      
 mulu0               1.0000     1.0000     1.0000     1.0000  
 delk1               0.         0.         0.         0.      
 delnfct             0.         0.         0.         0.      
 deltox              0.         0.         0.         0.      
 sa                  0.         0.         0.         0.      
 sb                  0.         0.         0.         0.      
 sd                  0.         0.         0.         0.      
 saeff               0.         0.         0.         0.      
 sbeff               0.         0.         0.         0.      
  
  
                                                               
 element name        3:m5       3:m4       3:m1        3:m0    
 drain               3:bit      3:bit_b    0:bl_b63    0:bl63  
 gate                3:bit_b    3:bit      0:wl255     0:wl255 
 source              0:0        0:0        3:bit_b     3:bit   
 bulk                0:0        0:0        0:0         0:0     
 model               0:nmos     0:nmos     0:nmos      0:nmos  
 w eff             122.0000n  122.0000n   78.0000n    78.0000n 
 l eff              29.0000n   29.0000n   29.0000n    29.0000n 
 rd eff              0.         0.         0.          0.      
 rs eff              0.         0.         0.          0.      
 cdsat              11.4887a   11.4887a    7.8700a     7.8700a 
 cssat              11.4887a   11.4887a    7.8700a     7.8700a 
 capbd             178.5462a  178.5462a  133.6681a   133.6681a 
 capbs             152.1990a  152.1990a  116.1033a   116.1033a 
 temp               25.0000    25.0000    25.0000     25.0000  
 aic                                                           
 nf                  1.0000     1.0000     1.0000      1.0000  
 min                 0.         0.         0.          0.      
 rbdb               15.0000    15.0000    15.0000     15.0000  
 rbsb               15.0000    15.0000    15.0000     15.0000  
 rbpb                5.0000     5.0000     5.0000      5.0000  
 rbps               15.0000    15.0000    15.0000     15.0000  
 rbpd               15.0000    15.0000    15.0000     15.0000  
 trnqsmod            0.         0.         0.          0.      
 acnqsmod            0.         0.         0.          0.      
 rbodymod            1.0000     1.0000     1.0000      1.0000  
 rgatemod            1.0000     1.0000     1.0000      1.0000  
 geomod              0.         0.         0.          0.      
 rgeomod             0.         0.         0.          0.      
 delvto              0.         0.         0.          0.      
 mulu0               1.0000     1.0000     1.0000      1.0000  
 delk1               0.         0.         0.          0.      
 delnfct             0.         0.         0.          0.      
 deltox              0.         0.         0.          0.      
 sa                  0.         0.         0.          0.      
 sb                  0.         0.         0.          0.      
 sd                  0.         0.         0.          0.      
 saeff               0.         0.         0.          0.      
 sbeff               0.         0.         0.          0.      
  
  
                                                              
 element name        3:m2       3:m3       4:m5       4:m4    
 drain               3:bit_b    3:bit      4:bit      4:bit_b 
 gate                3:bit      3:bit_b    4:bit_b    4:bit   
 source              0:vdd      0:vdd      0:0        0:0     
 bulk                0:vdd!     0:vdd!     0:0        0:0     
 model               0:pmos     0:pmos     0:nmos     0:nmos  
 w eff              78.0000n   78.0000n   30.9880u   30.9880u 
 l eff              29.0000n   29.0000n   29.0000n   29.0000n 
 rd eff              0.         0.         0.         0.      
 rs eff              0.         0.         0.         0.      
 cdsat               7.8700a    7.8700a    2.9181f    2.9181f 
 cssat               7.8700a    7.8700a    2.9181f    2.9181f 
 capbd             133.6681a  133.6681a  178.5462a  178.5462a 
 capbs             116.1033a  116.1033a  152.1990a  152.1990a 
 temp               25.0000    25.0000    25.0000    25.0000  
 aic                                                          
 nf                  1.0000     1.0000     1.0000     1.0000  
 min                 0.         0.         0.         0.      
 rbdb               15.0000    15.0000    15.0000    15.0000  
 rbsb               15.0000    15.0000    15.0000    15.0000  
 rbpb                5.0000     5.0000     5.0000     5.0000  
 rbps               15.0000    15.0000    15.0000    15.0000  
 rbpd               15.0000    15.0000    15.0000    15.0000  
 trnqsmod            0.         0.         0.         0.      
 acnqsmod            0.         0.         0.         0.      
 rbodymod            1.0000     1.0000     1.0000     1.0000  
 rgatemod            1.0000     1.0000     1.0000     1.0000  
 geomod              0.         0.         0.         0.      
 rgeomod             0.         0.         0.         0.      
 delvto              0.         0.         0.         0.      
 mulu0               1.0000     1.0000     1.0000     1.0000  
 delk1               0.         0.         0.         0.      
 delnfct             0.         0.         0.         0.      
 deltox              0.         0.         0.         0.      
 sa                  0.         0.         0.         0.      
 sb                  0.         0.         0.         0.      
 sd                  0.         0.         0.         0.      
 saeff               0.         0.         0.         0.      
 sbeff               0.         0.         0.         0.      
  
  
                                                               
 element name        4:m1        4:m0       4:m2       4:m3    
 drain               0:bl_b63    0:bl63     4:bit_b    4:bit   
 gate                0:0         0:0        4:bit      4:bit_b 
 source              4:bit_b     4:bit      0:vdd      0:vdd   
 bulk                0:0         0:0        0:vdd!     0:vdd!  
 model               0:nmos      0:nmos     0:pmos     0:pmos  
 w eff              19.8120u    19.8120u   19.8120u   19.8120u 
 l eff              29.0000n    29.0000n   29.0000n   29.0000n 
 rd eff              0.          0.         0.         0.      
 rs eff              0.          0.         0.         0.      
 cdsat               1.9990f     1.9990f    1.9990f    1.9990f 
 cssat               1.9990f     1.9990f    1.9990f    1.9990f 
 capbd             133.6681a   133.6681a  133.6681a  133.6681a 
 capbs             116.1033a   116.1033a  116.1033a  116.1033a 
 temp               25.0000     25.0000    25.0000    25.0000  
 aic                                                           
 nf                  1.0000      1.0000     1.0000     1.0000  
 min                 0.          0.         0.         0.      
 rbdb               15.0000     15.0000    15.0000    15.0000  
 rbsb               15.0000     15.0000    15.0000    15.0000  
 rbpb                5.0000      5.0000     5.0000     5.0000  
 rbps               15.0000     15.0000    15.0000    15.0000  
 rbpd               15.0000     15.0000    15.0000    15.0000  
 trnqsmod            0.          0.         0.         0.      
 acnqsmod            0.          0.         0.         0.      
 rbodymod            1.0000      1.0000     1.0000     1.0000  
 rgatemod            1.0000      1.0000     1.0000     1.0000  
 geomod              0.          0.         0.         0.      
 rgeomod             0.          0.         0.         0.      
 delvto              0.          0.         0.         0.      
 mulu0               1.0000      1.0000     1.0000     1.0000  
 delk1               0.          0.         0.         0.      
 delnfct             0.          0.         0.         0.      
 deltox              0.          0.         0.         0.      
 sa                  0.          0.         0.         0.      
 sb                  0.          0.         0.         0.      
 sd                  0.          0.         0.         0.      
 saeff               0.          0.         0.         0.      
 sbeff               0.          0.         0.         0.      
  
  
                                                              
 element name        5:m5       5:m4       5:m1       5:m0    
 drain               5:bit      5:bit_b    0:net56    0:net57 
 gate                5:bit_b    5:bit      0:0        0:0     
 source              0:0        0:0        5:bit_b    5:bit   
 bulk                0:0        0:0        0:0        0:0     
 model               0:nmos     0:nmos     0:nmos     0:nmos  
 w eff               7.8710m    7.8710m    5.0322m    5.0322m 
 l eff              29.0000n   29.0000n   29.0000n   29.0000n 
 rd eff              0.         0.         0.         0.      
 rs eff              0.         0.         0.         0.      
 cdsat             741.2026f  741.2026f  507.7401f  507.7401f 
 cssat             741.2026f  741.2026f  507.7401f  507.7401f 
 capbd             178.5462a  178.5462a  133.6681a  133.6681a 
 capbs             152.1990a  152.1990a  116.1033a  116.1033a 
 temp               25.0000    25.0000    25.0000    25.0000  
 aic                                                          
 nf                  1.0000     1.0000     1.0000     1.0000  
 min                 0.         0.         0.         0.      
 rbdb               15.0000    15.0000    15.0000    15.0000  
 rbsb               15.0000    15.0000    15.0000    15.0000  
 rbpb                5.0000     5.0000     5.0000     5.0000  
 rbps               15.0000    15.0000    15.0000    15.0000  
 rbpd               15.0000    15.0000    15.0000    15.0000  
 trnqsmod            0.         0.         0.         0.      
 acnqsmod            0.         0.         0.         0.      
 rbodymod            1.0000     1.0000     1.0000     1.0000  
 rgatemod            1.0000     1.0000     1.0000     1.0000  
 geomod              0.         0.         0.         0.      
 rgeomod             0.         0.         0.         0.      
 delvto              0.         0.         0.         0.      
 mulu0               1.0000     1.0000     1.0000     1.0000  
 delk1               0.         0.         0.         0.      
 delnfct             0.         0.         0.         0.      
 deltox              0.         0.         0.         0.      
 sa                  0.         0.         0.         0.      
 sb                  0.         0.         0.         0.      
 sd                  0.         0.         0.         0.      
 saeff               0.         0.         0.         0.      
 sbeff               0.         0.         0.         0.      
  
  
                                                              
 element name        5:m2       5:m3       6:m5       6:m4    
 drain               5:bit_b    5:bit      6:bit      6:bit_b 
 gate                5:bit      5:bit_b    6:bit_b    6:bit   
 source              0:vdd      0:vdd      0:0        0:0     
 bulk                0:vdd!     0:vdd!     0:0        0:0     
 model               0:pmos     0:pmos     0:nmos     0:nmos  
 w eff               5.0322m    5.0322m   30.9880u   30.9880u 
 l eff              29.0000n   29.0000n   29.0000n   29.0000n 
 rd eff              0.         0.         0.         0.      
 rs eff              0.         0.         0.         0.      
 cdsat             507.7401f  507.7401f    2.9181f    2.9181f 
 cssat             507.7401f  507.7401f    2.9181f    2.9181f 
 capbd             133.6681a  133.6681a  178.5462a  178.5462a 
 capbs             116.1033a  116.1033a  152.1990a  152.1990a 
 temp               25.0000    25.0000    25.0000    25.0000  
 aic                                                          
 nf                  1.0000     1.0000     1.0000     1.0000  
 min                 0.         0.         0.         0.      
 rbdb               15.0000    15.0000    15.0000    15.0000  
 rbsb               15.0000    15.0000    15.0000    15.0000  
 rbpb                5.0000     5.0000     5.0000     5.0000  
 rbps               15.0000    15.0000    15.0000    15.0000  
 rbpd               15.0000    15.0000    15.0000    15.0000  
 trnqsmod            0.         0.         0.         0.      
 acnqsmod            0.         0.         0.         0.      
 rbodymod            1.0000     1.0000     1.0000     1.0000  
 rgatemod            1.0000     1.0000     1.0000     1.0000  
 geomod              0.         0.         0.         0.      
 rgeomod             0.         0.         0.         0.      
 delvto              0.         0.         0.         0.      
 mulu0               1.0000     1.0000     1.0000     1.0000  
 delk1               0.         0.         0.         0.      
 delnfct             0.         0.         0.         0.      
 deltox              0.         0.         0.         0.      
 sa                  0.         0.         0.         0.      
 sb                  0.         0.         0.         0.      
 sd                  0.         0.         0.         0.      
 saeff               0.         0.         0.         0.      
 sbeff               0.         0.         0.         0.      
  
  
                                                              
 element name        6:m1       6:m0       6:m2       6:m3    
 drain               0:bl_b0    0:bl0      6:bit_b    6:bit   
 gate                0:0        0:0        6:bit      6:bit_b 
 source              6:bit_b    6:bit      0:vdd      0:vdd   
 bulk                0:0        0:0        0:vdd!     0:vdd!  
 model               0:nmos     0:nmos     0:pmos     0:pmos  
 w eff              19.8120u   19.8120u   19.8120u   19.8120u 
 l eff              29.0000n   29.0000n   29.0000n   29.0000n 
 rd eff              0.         0.         0.         0.      
 rs eff              0.         0.         0.         0.      
 cdsat               1.9990f    1.9990f    1.9990f    1.9990f 
 cssat               1.9990f    1.9990f    1.9990f    1.9990f 
 capbd             133.6681a  133.6681a  133.6681a  133.6681a 
 capbs             116.1033a  116.1033a  116.1033a  116.1033a 
 temp               25.0000    25.0000    25.0000    25.0000  
 aic                                                          
 nf                  1.0000     1.0000     1.0000     1.0000  
 min                 0.         0.         0.         0.      
 rbdb               15.0000    15.0000    15.0000    15.0000  
 rbsb               15.0000    15.0000    15.0000    15.0000  
 rbpb                5.0000     5.0000     5.0000     5.0000  
 rbps               15.0000    15.0000    15.0000    15.0000  
 rbpd               15.0000    15.0000    15.0000    15.0000  
 trnqsmod            0.         0.         0.         0.      
 acnqsmod            0.         0.         0.         0.      
 rbodymod            1.0000     1.0000     1.0000     1.0000  
 rgatemod            1.0000     1.0000     1.0000     1.0000  
 geomod              0.         0.         0.         0.      
 rgeomod             0.         0.         0.         0.      
 delvto              0.         0.         0.         0.      
 mulu0               1.0000     1.0000     1.0000     1.0000  
 delk1               0.         0.         0.         0.      
 delnfct             0.         0.         0.         0.      
 deltox              0.         0.         0.         0.      
 sa                  0.         0.         0.         0.      
 sb                  0.         0.         0.         0.      
 sd                  0.         0.         0.         0.      
 saeff               0.         0.         0.         0.      
 sbeff               0.         0.         0.         0.      
  
  
                                                               
 element name        7:m5       7:m4       7:m1        7:m0    
 drain               7:bit      7:bit_b    0:bl_b63    0:bl63  
 gate                7:bit_b    7:bit      0:wl0       0:wl0   
 source              0:0        0:0        7:bit_b     7:bit   
 bulk                0:0        0:0        0:0         0:0     
 model               0:nmos     0:nmos     0:nmos      0:nmos  
 w eff             122.0000n  122.0000n   78.0000n    78.0000n 
 l eff              29.0000n   29.0000n   29.0000n    29.0000n 
 rd eff              0.         0.         0.          0.      
 rs eff              0.         0.         0.          0.      
 cdsat              11.4887a   11.4887a    7.8700a     7.8700a 
 cssat              11.4887a   11.4887a    7.8700a     7.8700a 
 capbd             178.5462a  178.5462a  133.6681a   133.6681a 
 capbs             152.1990a  152.1990a  116.1033a   116.1033a 
 temp               25.0000    25.0000    25.0000     25.0000  
 aic                                                           
 nf                  1.0000     1.0000     1.0000      1.0000  
 min                 0.         0.         0.          0.      
 rbdb               15.0000    15.0000    15.0000     15.0000  
 rbsb               15.0000    15.0000    15.0000     15.0000  
 rbpb                5.0000     5.0000     5.0000      5.0000  
 rbps               15.0000    15.0000    15.0000     15.0000  
 rbpd               15.0000    15.0000    15.0000     15.0000  
 trnqsmod            0.         0.         0.          0.      
 acnqsmod            0.         0.         0.          0.      
 rbodymod            1.0000     1.0000     1.0000      1.0000  
 rgatemod            1.0000     1.0000     1.0000      1.0000  
 geomod              0.         0.         0.          0.      
 rgeomod             0.         0.         0.          0.      
 delvto              0.         0.         0.          0.      
 mulu0               1.0000     1.0000     1.0000      1.0000  
 delk1               0.         0.         0.          0.      
 delnfct             0.         0.         0.          0.      
 deltox              0.         0.         0.          0.      
 sa                  0.         0.         0.          0.      
 sb                  0.         0.         0.          0.      
 sd                  0.         0.         0.          0.      
 saeff               0.         0.         0.          0.      
 sbeff               0.         0.         0.          0.      
  
  
                                                              
 element name        7:m2       7:m3       8:m5       8:m4    
 drain               7:bit_b    7:bit      8:bit      8:bit_b 
 gate                7:bit      7:bit_b    8:bit_b    8:bit   
 source              0:vdd      0:vdd      0:0        0:0     
 bulk                0:vdd!     0:vdd!     0:0        0:0     
 model               0:pmos     0:pmos     0:nmos     0:nmos  
 w eff              78.0000n   78.0000n   30.9880u   30.9880u 
 l eff              29.0000n   29.0000n   29.0000n   29.0000n 
 rd eff              0.         0.         0.         0.      
 rs eff              0.         0.         0.         0.      
 cdsat               7.8700a    7.8700a    2.9181f    2.9181f 
 cssat               7.8700a    7.8700a    2.9181f    2.9181f 
 capbd             133.6681a  133.6681a  178.5462a  178.5462a 
 capbs             116.1033a  116.1033a  152.1990a  152.1990a 
 temp               25.0000    25.0000    25.0000    25.0000  
 aic                                                          
 nf                  1.0000     1.0000     1.0000     1.0000  
 min                 0.         0.         0.         0.      
 rbdb               15.0000    15.0000    15.0000    15.0000  
 rbsb               15.0000    15.0000    15.0000    15.0000  
 rbpb                5.0000     5.0000     5.0000     5.0000  
 rbps               15.0000    15.0000    15.0000    15.0000  
 rbpd               15.0000    15.0000    15.0000    15.0000  
 trnqsmod            0.         0.         0.         0.      
 acnqsmod            0.         0.         0.         0.      
 rbodymod            1.0000     1.0000     1.0000     1.0000  
 rgatemod            1.0000     1.0000     1.0000     1.0000  
 geomod              0.         0.         0.         0.      
 rgeomod             0.         0.         0.         0.      
 delvto              0.         0.         0.         0.      
 mulu0               1.0000     1.0000     1.0000     1.0000  
 delk1               0.         0.         0.         0.      
 delnfct             0.         0.         0.         0.      
 deltox              0.         0.         0.         0.      
 sa                  0.         0.         0.         0.      
 sb                  0.         0.         0.         0.      
 sd                  0.         0.         0.         0.      
 saeff               0.         0.         0.         0.      
 sbeff               0.         0.         0.         0.      
  
  
                                                              
 element name        8:m1       8:m0       8:m2       8:m3    
 drain               0:net56    0:net57    8:bit_b    8:bit   
 gate                0:wl0      0:wl0      8:bit      8:bit_b 
 source              8:bit_b    8:bit      0:vdd      0:vdd   
 bulk                0:0        0:0        0:vdd!     0:vdd!  
 model               0:nmos     0:nmos     0:pmos     0:pmos  
 w eff              19.8120u   19.8120u   19.8120u   19.8120u 
 l eff              29.0000n   29.0000n   29.0000n   29.0000n 
 rd eff              0.         0.         0.         0.      
 rs eff              0.         0.         0.         0.      
 cdsat               1.9990f    1.9990f    1.9990f    1.9990f 
 cssat               1.9990f    1.9990f    1.9990f    1.9990f 
 capbd             133.6681a  133.6681a  133.6681a  133.6681a 
 capbs             116.1033a  116.1033a  116.1033a  116.1033a 
 temp               25.0000    25.0000    25.0000    25.0000  
 aic                                                          
 nf                  1.0000     1.0000     1.0000     1.0000  
 min                 0.         0.         0.         0.      
 rbdb               15.0000    15.0000    15.0000    15.0000  
 rbsb               15.0000    15.0000    15.0000    15.0000  
 rbpb                5.0000     5.0000     5.0000     5.0000  
 rbps               15.0000    15.0000    15.0000    15.0000  
 rbpd               15.0000    15.0000    15.0000    15.0000  
 trnqsmod            0.         0.         0.         0.      
 acnqsmod            0.         0.         0.         0.      
 rbodymod            1.0000     1.0000     1.0000     1.0000  
 rgatemod            1.0000     1.0000     1.0000     1.0000  
 geomod              0.         0.         0.         0.      
 rgeomod             0.         0.         0.         0.      
 delvto              0.         0.         0.         0.      
 mulu0               1.0000     1.0000     1.0000     1.0000  
 delk1               0.         0.         0.         0.      
 delnfct             0.         0.         0.         0.      
 deltox              0.         0.         0.         0.      
 sa                  0.         0.         0.         0.      
 sb                  0.         0.         0.         0.      
 sd                  0.         0.         0.         0.      
 saeff               0.         0.         0.         0.      
 sbeff               0.         0.         0.         0.      
  
  
                                                              
 element name        9:m5       9:m4       9:m1       9:m0    
 drain               9:bit      9:bit_b    0:bl_b0    0:bl0   
 gate                9:bit_b    9:bit      0:wl0      0:wl0   
 source              0:0        0:0        9:bit_b    9:bit   
 bulk                0:0        0:0        0:0        0:0     
 model               0:nmos     0:nmos     0:nmos     0:nmos  
 w eff             122.0000n  122.0000n   78.0000n   78.0000n 
 l eff              29.0000n   29.0000n   29.0000n   29.0000n 
 rd eff              0.         0.         0.         0.      
 rs eff              0.         0.         0.         0.      
 cdsat              11.4887a   11.4887a    7.8700a    7.8700a 
 cssat              11.4887a   11.4887a    7.8700a    7.8700a 
 capbd             178.5462a  178.5462a  133.6681a  133.6681a 
 capbs             152.1990a  152.1990a  116.1033a  116.1033a 
 temp               25.0000    25.0000    25.0000    25.0000  
 aic                                                          
 nf                  1.0000     1.0000     1.0000     1.0000  
 min                 0.         0.         0.         0.      
 rbdb               15.0000    15.0000    15.0000    15.0000  
 rbsb               15.0000    15.0000    15.0000    15.0000  
 rbpb                5.0000     5.0000     5.0000     5.0000  
 rbps               15.0000    15.0000    15.0000    15.0000  
 rbpd               15.0000    15.0000    15.0000    15.0000  
 trnqsmod            0.         0.         0.         0.      
 acnqsmod            0.         0.         0.         0.      
 rbodymod            1.0000     1.0000     1.0000     1.0000  
 rgatemod            1.0000     1.0000     1.0000     1.0000  
 geomod              0.         0.         0.         0.      
 rgeomod             0.         0.         0.         0.      
 delvto              0.         0.         0.         0.      
 mulu0               1.0000     1.0000     1.0000     1.0000  
 delk1               0.         0.         0.         0.      
 delnfct             0.         0.         0.         0.      
 deltox              0.         0.         0.         0.      
 sa                  0.         0.         0.         0.      
 sb                  0.         0.         0.         0.      
 sd                  0.         0.         0.         0.      
 saeff               0.         0.         0.         0.      
 sbeff               0.         0.         0.         0.      
  
  
                                                                
 element name        9:m2       9:m3      10:m5       10:m1     
 drain               9:bit_b    9:bit      0:bl0       0:bl0    
 gate                9:bit      9:bit_b    0:blpc_b    0:blpc_b 
 source              0:vdd      0:vdd      0:vdd!      0:bl_b0  
 bulk                0:vdd!     0:vdd!     0:vdd!      0:vdd!   
 model               0:pmos     0:pmos     0:pmos      0:pmos   
 w eff              78.0000n   78.0000n    1.7500u     1.7500u  
 l eff              29.0000n   29.0000n   29.0000n    29.0000n  
 rd eff              0.         0.         0.          0.       
 rs eff              0.         0.         0.          0.       
 cdsat               7.8700a    7.8700a  145.3797a   145.3797a  
 cssat               7.8700a    7.8700a  145.3797a   145.3797a  
 capbd             133.6681a  133.6681a    1.8390f     1.8390f  
 capbs             116.1033a  116.1033a    1.4877f     1.4877f  
 temp               25.0000    25.0000    25.0000     25.0000   
 aic                                                            
 nf                  1.0000     1.0000     1.0000      1.0000   
 min                 0.         0.         0.          0.       
 rbdb               15.0000    15.0000    15.0000     15.0000   
 rbsb               15.0000    15.0000    15.0000     15.0000   
 rbpb                5.0000     5.0000     5.0000      5.0000   
 rbps               15.0000    15.0000    15.0000     15.0000   
 rbpd               15.0000    15.0000    15.0000     15.0000   
 trnqsmod            0.         0.         0.          0.       
 acnqsmod            0.         0.         0.          0.       
 rbodymod            1.0000     1.0000     1.0000      1.0000   
 rgatemod            1.0000     1.0000     1.0000      1.0000   
 geomod              0.         0.         0.          0.       
 rgeomod             0.         0.         0.          0.       
 delvto              0.         0.         0.          0.       
 mulu0               1.0000     1.0000     1.0000      1.0000   
 delk1               0.         0.         0.          0.       
 delnfct             0.         0.         0.          0.       
 deltox              0.         0.         0.          0.       
 sa                  0.         0.         0.          0.       
 sb                  0.         0.         0.          0.       
 sd                  0.         0.         0.          0.       
 saeff               0.         0.         0.          0.       
 sbeff               0.         0.         0.          0.       
  
  
                                                                
 element name       10:m0       10:m4      10:m3      11:m5     
 drain               0:bl_b0    10:net23   10:net26    0:net57  
 gate                0:blpc_b    0:0        0:0        0:blpc_b 
 source              0:vdd!      0:bl_b0    0:bl0      0:vdd!   
 bulk                0:vdd!      0:0        0:0        0:vdd!   
 model               0:pmos      0:nmos     0:nmos     0:pmos   
 w eff               1.7500u     1.9700u    1.9700u  444.5000u  
 l eff              29.0000n    29.0000n   29.0000n   29.0000n  
 rd eff              0.          0.         0.         0.       
 rs eff              0.          0.         0.         0.       
 cdsat             145.3797a   163.4731a  163.4731a   36.9264f  
 cssat             145.3797a   163.4731a  163.4731a   36.9264f  
 capbd               1.8390f     2.0634f    2.0634f    1.8390f  
 capbs               1.4877f     1.6682f    1.6682f    1.4877f  
 temp               25.0000     25.0000    25.0000    25.0000   
 aic                                                            
 nf                  1.0000      1.0000     1.0000     1.0000   
 min                 0.          0.         0.         0.       
 rbdb               15.0000     15.0000    15.0000    15.0000   
 rbsb               15.0000     15.0000    15.0000    15.0000   
 rbpb                5.0000      5.0000     5.0000     5.0000   
 rbps               15.0000     15.0000    15.0000    15.0000   
 rbpd               15.0000     15.0000    15.0000    15.0000   
 trnqsmod            0.          0.         0.         0.       
 acnqsmod            0.          0.         0.         0.       
 rbodymod            1.0000      1.0000     1.0000     1.0000   
 rgatemod            1.0000      1.0000     1.0000     1.0000   
 geomod              0.          0.         0.         0.       
 rgeomod             0.          0.         0.         0.       
 delvto              0.          0.         0.         0.       
 mulu0               1.0000      1.0000     1.0000     1.0000   
 delk1               0.          0.         0.         0.       
 delnfct             0.          0.         0.         0.       
 deltox              0.          0.         0.         0.       
 sa                  0.          0.         0.         0.       
 sb                  0.          0.         0.         0.       
 sd                  0.          0.         0.         0.       
 saeff               0.          0.         0.         0.       
 sbeff               0.          0.         0.         0.       
  
  
                                                                
 element name       11:m1       11:m0       11:m4      11:m3    
 drain               0:net57     0:net56    11:net23   11:net26 
 gate                0:blpc_b    0:blpc_b    0:0        0:0     
 source              0:net56     0:vdd!      0:net56    0:net57 
 bulk                0:vdd!      0:vdd!      0:0        0:0     
 model               0:pmos      0:pmos      0:nmos     0:nmos  
 w eff             444.5000u   444.5000u   500.3800u  500.3800u 
 l eff              29.0000n    29.0000n    29.0000n   29.0000n 
 rd eff              0.          0.          0.         0.      
 rs eff              0.          0.          0.         0.      
 cdsat              36.9264f    36.9264f    41.5222f   41.5222f 
 cssat              36.9264f    36.9264f    41.5222f   41.5222f 
 capbd               1.8390f     1.8390f     2.0634f    2.0634f 
 capbs               1.4877f     1.4877f     1.6682f    1.6682f 
 temp               25.0000     25.0000     25.0000    25.0000  
 aic                                                            
 nf                  1.0000      1.0000      1.0000     1.0000  
 min                 0.          0.          0.         0.      
 rbdb               15.0000     15.0000     15.0000    15.0000  
 rbsb               15.0000     15.0000     15.0000    15.0000  
 rbpb                5.0000      5.0000      5.0000     5.0000  
 rbps               15.0000     15.0000     15.0000    15.0000  
 rbpd               15.0000     15.0000     15.0000    15.0000  
 trnqsmod            0.          0.          0.         0.      
 acnqsmod            0.          0.          0.         0.      
 rbodymod            1.0000      1.0000      1.0000     1.0000  
 rgatemod            1.0000      1.0000      1.0000     1.0000  
 geomod              0.          0.          0.         0.      
 rgeomod             0.          0.          0.         0.      
 delvto              0.          0.          0.         0.      
 mulu0               1.0000      1.0000      1.0000     1.0000  
 delk1               0.          0.          0.         0.      
 delnfct             0.          0.          0.         0.      
 deltox              0.          0.          0.         0.      
 sa                  0.          0.          0.         0.      
 sb                  0.          0.          0.         0.      
 sd                  0.          0.          0.         0.      
 saeff               0.          0.          0.         0.      
 sbeff               0.          0.          0.         0.      
  
  
                                                                  
 element name       12:m5       12:m1       12:m0       12:m4     
 drain               0:bl63      0:bl63      0:bl_b63   12:net23  
 gate                0:blpc_b    0:blpc_b    0:blpc_b    0:0      
 source              0:vdd!      0:bl_b63    0:vdd!      0:bl_b63 
 bulk                0:vdd!      0:vdd!      0:vdd!      0:0      
 model               0:pmos      0:pmos      0:pmos      0:nmos   
 w eff               1.7500u     1.7500u     1.7500u     1.9700u  
 l eff              29.0000n    29.0000n    29.0000n    29.0000n  
 rd eff              0.          0.          0.          0.       
 rs eff              0.          0.          0.          0.       
 cdsat             145.3797a   145.3797a   145.3797a   163.4731a  
 cssat             145.3797a   145.3797a   145.3797a   163.4731a  
 capbd               1.8390f     1.8390f     1.8390f     2.0634f  
 capbs               1.4877f     1.4877f     1.4877f     1.6682f  
 temp               25.0000     25.0000     25.0000     25.0000   
 aic                                                              
 nf                  1.0000      1.0000      1.0000      1.0000   
 min                 0.          0.          0.          0.       
 rbdb               15.0000     15.0000     15.0000     15.0000   
 rbsb               15.0000     15.0000     15.0000     15.0000   
 rbpb                5.0000      5.0000      5.0000      5.0000   
 rbps               15.0000     15.0000     15.0000     15.0000   
 rbpd               15.0000     15.0000     15.0000     15.0000   
 trnqsmod            0.          0.          0.          0.       
 acnqsmod            0.          0.          0.          0.       
 rbodymod            1.0000      1.0000      1.0000      1.0000   
 rgatemod            1.0000      1.0000      1.0000      1.0000   
 geomod              0.          0.          0.          0.       
 rgeomod             0.          0.          0.          0.       
 delvto              0.          0.          0.          0.       
 mulu0               1.0000      1.0000      1.0000      1.0000   
 delk1               0.          0.          0.          0.       
 delnfct             0.          0.          0.          0.       
 deltox              0.          0.          0.          0.       
 sa                  0.          0.          0.          0.       
 sb                  0.          0.          0.          0.       
 sd                  0.          0.          0.          0.       
 saeff               0.          0.          0.          0.       
 sbeff               0.          0.          0.          0.       
  
  
                                                              
 element name       12:m3      18:m1      18:m2      19:m1    
 drain              12:net26   10:net18   10:net18   10:net23 
 gate                0:0        0:vdd!     0:vdd!     0:vdd!  
 source              0:bl63     0:vdd!     0:0        0:vdd!  
 bulk                0:0        0:vdd!     0:0        0:vdd!  
 model               0:nmos     0:pmos     0:nmos     0:pmos  
 w eff               1.9700u  166.0000n   78.0000n  254.0000n 
 l eff              29.0000n   29.0000n   29.0000n   29.0000n 
 rd eff              0.         0.         0.         0.      
 rs eff              0.         0.         0.         0.      
 cdsat             163.4731a   15.1073a    7.8700a   22.3447a 
 cssat             163.4731a   15.1073a    7.8700a   22.3447a 
 capbd               2.0634f  223.4243a  133.6681a  313.1804a 
 capbs               1.6682f  188.2947a  116.1033a  260.4860a 
 temp               25.0000    25.0000    25.0000    25.0000  
 aic                                                          
 nf                  1.0000     1.0000     1.0000     1.0000  
 min                 0.         0.         0.         0.      
 rbdb               15.0000    15.0000    15.0000    15.0000  
 rbsb               15.0000    15.0000    15.0000    15.0000  
 rbpb                5.0000     5.0000     5.0000     5.0000  
 rbps               15.0000    15.0000    15.0000    15.0000  
 rbpd               15.0000    15.0000    15.0000    15.0000  
 trnqsmod            0.         0.         0.         0.      
 acnqsmod            0.         0.         0.         0.      
 rbodymod            1.0000     1.0000     1.0000     1.0000  
 rgatemod            1.0000     1.0000     1.0000     1.0000  
 geomod              0.         0.         0.         0.      
 rgeomod             0.         0.         0.         0.      
 delvto              0.         0.         0.         0.      
 mulu0               1.0000     1.0000     1.0000     1.0000  
 delk1               0.         0.         0.         0.      
 delnfct             0.         0.         0.         0.      
 deltox              0.         0.         0.         0.      
 sa                  0.         0.         0.         0.      
 sb                  0.         0.         0.         0.      
 sd                  0.         0.         0.         0.      
 saeff               0.         0.         0.         0.      
 sbeff               0.         0.         0.         0.      
  
  
                                                              
 element name       19:m2      20:m1      20:m2      21:m1    
 drain              10:net23   10:net26   10:net26   11:net18 
 gate                0:vdd!    10:net18   10:net18    0:vdd!  
 source              0:0        0:vdd!     0:0        0:vdd!  
 bulk                0:0        0:vdd!     0:0        0:vdd!  
 model               0:nmos     0:pmos     0:nmos     0:pmos  
 w eff             518.0000n  254.0000n  518.0000n   42.1640u 
 l eff              29.0000n   29.0000n   29.0000n   29.0000n 
 rd eff              0.         0.         0.         0.      
 rs eff              0.         0.         0.         0.      
 cdsat              44.0567a   22.3447a   44.0567a    3.8373f 
 cssat              44.0567a   22.3447a   44.0567a    3.8373f 
 capbd             582.4488a  313.1804a  582.4488a  223.4243a 
 capbs             477.0600a  260.4860a  477.0600a  188.2947a 
 temp               25.0000    25.0000    25.0000    25.0000  
 aic                                                          
 nf                  1.0000     1.0000     1.0000     1.0000  
 min                 0.         0.         0.         0.      
 rbdb               15.0000    15.0000    15.0000    15.0000  
 rbsb               15.0000    15.0000    15.0000    15.0000  
 rbpb                5.0000     5.0000     5.0000     5.0000  
 rbps               15.0000    15.0000    15.0000    15.0000  
 rbpd               15.0000    15.0000    15.0000    15.0000  
 trnqsmod            0.         0.         0.         0.      
 acnqsmod            0.         0.         0.         0.      
 rbodymod            1.0000     1.0000     1.0000     1.0000  
 rgatemod            1.0000     1.0000     1.0000     1.0000  
 geomod              0.         0.         0.         0.      
 rgeomod             0.         0.         0.         0.      
 delvto              0.         0.         0.         0.      
 mulu0               1.0000     1.0000     1.0000     1.0000  
 delk1               0.         0.         0.         0.      
 delnfct             0.         0.         0.         0.      
 deltox              0.         0.         0.         0.      
 sa                  0.         0.         0.         0.      
 sb                  0.         0.         0.         0.      
 sd                  0.         0.         0.         0.      
 saeff               0.         0.         0.         0.      
 sbeff               0.         0.         0.         0.      
  
  
                                                              
 element name       21:m2      22:m1      22:m2      23:m1    
 drain              11:net18   11:net23   11:net23   11:net26 
 gate                0:vdd!     0:vdd!     0:vdd!    11:net18 
 source              0:0        0:vdd!     0:0        0:vdd!  
 bulk                0:0        0:vdd!     0:0        0:vdd!  
 model               0:nmos     0:pmos     0:nmos     0:pmos  
 w eff              19.8120u   64.5160u  131.5720u   64.5160u 
 l eff              29.0000n   29.0000n   29.0000n   29.0000n 
 rd eff              0.         0.         0.         0.      
 rs eff              0.         0.         0.         0.      
 cdsat               1.9990f    5.6756f   11.1904f    5.6756f 
 cssat               1.9990f    5.6756f   11.1904f    5.6756f 
 capbd             133.6681a  313.1804a  582.4488a  313.1804a 
 capbs             116.1033a  260.4860a  477.0600a  260.4860a 
 temp               25.0000    25.0000    25.0000    25.0000  
 aic                                                          
 nf                  1.0000     1.0000     1.0000     1.0000  
 min                 0.         0.         0.         0.      
 rbdb               15.0000    15.0000    15.0000    15.0000  
 rbsb               15.0000    15.0000    15.0000    15.0000  
 rbpb                5.0000     5.0000     5.0000     5.0000  
 rbps               15.0000    15.0000    15.0000    15.0000  
 rbpd               15.0000    15.0000    15.0000    15.0000  
 trnqsmod            0.         0.         0.         0.      
 acnqsmod            0.         0.         0.         0.      
 rbodymod            1.0000     1.0000     1.0000     1.0000  
 rgatemod            1.0000     1.0000     1.0000     1.0000  
 geomod              0.         0.         0.         0.      
 rgeomod             0.         0.         0.         0.      
 delvto              0.         0.         0.         0.      
 mulu0               1.0000     1.0000     1.0000     1.0000  
 delk1               0.         0.         0.         0.      
 delnfct             0.         0.         0.         0.      
 deltox              0.         0.         0.         0.      
 sa                  0.         0.         0.         0.      
 sb                  0.         0.         0.         0.      
 sd                  0.         0.         0.         0.      
 saeff               0.         0.         0.         0.      
 sbeff               0.         0.         0.         0.      
  
  
                                                              
 element name       23:m2      24:m1      24:m2      25:m1    
 drain              11:net26   12:net18   12:net18   12:net23 
 gate               11:net18    0:vdd!     0:vdd!     0:vdd!  
 source              0:0        0:vdd!     0:0        0:vdd!  
 bulk                0:0        0:vdd!     0:0        0:vdd!  
 model               0:nmos     0:pmos     0:nmos     0:pmos  
[...]
  gds       176.0960u   176.0988u   176.0960u     2.0281n   413.6738u
  gmb       298.6925p   298.6895p   298.6925p     6.0417n   122.3076p
  cdtot     378.1367a   378.1372a   378.1367a   186.9737a   271.7384a
  cgtot     254.9590a   254.9593a   254.9590a    93.2690a   170.2722a
  cstot     257.9501a   257.9500a   257.9501a   174.4336a   188.8754a
  cbtot     393.4433a   393.4433a   393.4433a   303.2542a   298.0448a
  cgs       143.0526a   143.0528a   143.0526a    40.0143a    93.0748a
  cgd       112.5629a   112.5631a   112.5629a    35.6971a    77.6354a



 subckt    xi17.xi0.x  xi17.xi0.x  xi17.xi0.x  xi17.xi0.x  xi17.xi0.x
 element  60:m1       60:m7       60:m6       60:m0       61:m10     
 model     0:nmos      0:pmos      0:pmos      0:pmos      0:nmos    
 region        Cutoff      Linear      Cutoff      Linear      Cutoff
  id        112.2374p    -1.1859n   -74.4244f    -1.1859n   366.5525p
  ibs      -105.7652f  -5.835e-25     0.       -5.835e-25   1.689e-26
  ibd        -1.0000p     6.7391a     6.7391a     6.7391a   -18.0090f
  vgs      -105.7330m  -999.9811m     0.       -999.9811m    18.9202u
  vds       894.2413m    -6.7343u    -6.7343u    -6.7343u    18.0023m
  vbs      -105.7519m     0.          0.          0.          0.     
  vth       334.4706m  -310.7628m  -310.7628m  -310.7628m   369.3675m
  vdsat      40.0424m  -503.9527m   -46.2174m  -503.9527m    40.2303m
  vod      -440.2036m  -689.2183m   310.7628m  -689.2183m  -369.3486m
  beta        2.9349m   317.5725u   367.4760u   317.5725u     2.8100m
  gam eff   441.0000m   394.0000m   394.0000m   394.0000m   441.0000m
  gm          2.9465n     1.0063n     1.9546p     1.0063n     9.3772n
  gds       219.8557p   176.0954u    11.0508n   176.0954u    15.0891n
  gmb       846.8476p   405.1370p   469.0420f   405.1370p     2.7875n
  cdtot     149.9389a   378.1361a   258.8314a   378.1361a   194.7703a
  cgtot      78.9704a   254.9589a   136.6816a   254.9589a    96.8476a
  cstot     165.6914a   257.9504a   228.0318a   257.9504a   174.4335a
  cbtot     271.7760a   393.4431a   393.7698a   393.4431a   307.4722a
  cgs        35.6977a   143.0528a    57.4452a   143.0528a    40.0142a
  cgd        25.7150a   112.5627a    57.4429a   112.5627a    39.2758a



 subckt    xi17.xi0.x  xi17.xi0.x  xi17.xi0.x  xi17.xi0.x  xi17.xi0.x
 element  61:m9       61:m1       61:m7       61:m6       61:m0      
 model     0:nmos      0:nmos      0:pmos      0:pmos      0:pmos    
 region        Cutoff      Cutoff      Linear      Linear      Linear
  id        366.5834p   366.6396p  -874.3100p  -874.3240p  -874.3100p
  ibs       -18.0090f   -72.5012f  -5.835e-25  -5.837e-25  -5.835e-25
  ibd       -72.5012f    -1.0000p     4.9685a     4.9685a     4.9685a
  vgs       -18.0023m   -72.4696m  -999.9811m    -1.0000   -999.9811m
  vds        54.4863m   927.5065m    -4.9649u    -4.9649u    -4.9649u
  vbs       -18.0023m   -72.4886m     0.          0.          0.     
  vth       371.2105m   324.5199m  -310.7630m  -310.7630m  -310.7630m
  vdsat      40.2520m    39.9627m  -503.9527m  -503.9637m  -503.9527m
  vod      -389.2128m  -396.9896m  -689.2181m  -689.2370m  -689.2181m
  beta        2.8035m     2.9711m   317.5725u   317.5699u   317.5725u
  gam eff   441.0000m   441.0000m   394.0000m   394.0000m   394.0000m
  gm          9.4361n     9.5370n   741.8756p   741.8556p   741.8756p
  gds         2.2131n   711.7076p   176.0960u   176.0988u   176.0960u
  gmb         2.7945n     2.7321n   298.6925p   298.6895p   298.6925p
  cdtot     189.8398a   149.9389a   378.1367a   378.1372a   378.1367a
  cgtot      93.8525a    80.2929a   254.9590a   254.9593a   254.9590a
  cstot     172.8988a   168.3430a   257.9501a   257.9500a   257.9501a
  cbtot     304.0025a   273.1049a   393.4433a   393.4433a   393.4433a
  cgs        39.2759a    37.0203a   143.0526a   143.0528a   143.0526a
  cgd        37.0188a    25.7149a   112.5629a   112.5631a   112.5629a



 subckt    xi17.xi0.x  xi17.xi0.x  xi17.xi0.x  xi17.xi0.x  xi17.xi0.x
 element  62:m1       62:m2       63:m1       63:m2       64:m1      
 model     0:pmos      0:nmos      0:pmos      0:nmos      0:pmos    
 region        Cutoff      Linear      Cutoff      Linear      Cutoff
  id        -15.5215n    16.7695n   -15.5222n    16.5506n   -15.5215n
  ibs      -9.414e-25   1.154e-24  -9.414e-25   1.154e-24  -9.414e-25
  ibd         1.0000p   -20.5337a     1.0000p   -20.2657a     1.0000p
  vgs        -4.9649u   999.9950m    -6.7343u   999.9933m    -4.9649u
  vds      -999.9795m    20.5150u  -999.9798m    20.2473u  -999.9795m
  vbs         0.          0.          0.          0.          0.     
  vth      -225.6987m   370.5943m  -225.6987m   370.5943m  -225.6987m
  vdsat     -46.2015m   337.5736m   -46.2015m   337.5729m   -46.2015m
  vod       225.6937m   629.4008m   225.6920m   629.3990m   225.6937m
  beta        1.6336m     4.0798m     1.6336m     4.0798m     1.6336m
  gam eff   394.0000m   441.0000m   394.0000m   441.0000m   394.0000m
  gm        393.6618n     6.4865n   393.6793n     6.4019n   393.6618n
  gds        37.7530n   817.4034u    37.7547n   817.4033u    37.7530n
  gmb        88.4211n     3.4160n    88.4249n     3.3714n    88.4211n
  cdtot     642.7817a   479.6518a   642.7817a   479.6518a   642.7817a
  cgtot     451.0084a   321.7952a   451.0088a   321.7952a   451.0084a
  cstot     738.4490a   316.6874a   738.4494a   316.6873a   738.4490a
  cbtot       1.0960f   485.6763a     1.0960f   485.6763a     1.0960f
  cgs       224.2982a   175.4779a   224.2986a   175.4778a   224.2982a
  cgd       143.8277a   148.8147a   143.8277a   148.8147a   143.8277a



 subckt    xi17.xi0.x  xi17.xi0.x  xi17.xi0.x  xclk_gen.x  xclk_gen.x
 element  64:m2       65:m1       65:m2       70:m_0      70:m_1     
 model     0:nmos      0:pmos      0:nmos      0:nmos      0:pmos    
 region        Linear      Cutoff      Linear      Cutoff      Linear
  id         16.7695n   -15.5222n    16.5506n     7.6210n   -16.0612n
  ibs       1.154e-24  -9.414e-25   1.154e-24   9.392e-25  -2.103e-24
  ibd       -20.5337a     1.0000p   -20.2657a  -999.9954f    25.6407a
  vgs       999.9950m    -6.7343u   999.9933m     0.         -1.0000 
  vds        20.5150u  -999.9798m    20.2473u   999.9744m   -25.5802u
  vbs         0.          0.          0.          0.          0.     
  vth       370.5943m  -225.6987m   370.5943m   302.3784m  -310.7612m
  vdsat     337.5736m   -46.2015m   337.5729m    39.8318m  -504.5937m
  vod       629.4008m   225.6920m   629.3990m  -302.3784m  -689.2388m
  beta        4.0798m     1.6336m     4.0798m     5.0666m     1.1424m
  gam eff   441.0000m   394.0000m   441.0000m   441.0000m   394.0000m
  gm          6.4865n   393.6793n     6.4019n   191.9183n    13.5110n
  gds       817.4034u    37.7547n   817.4033u    14.3449n   627.8611u
  gmb         3.4160n    88.4249n     3.3714n    54.4515n     5.4389n
  cdtot     479.6518a   642.7817a   479.6518a   220.4434a     1.2194f
  cgtot     321.7952a   451.0088a   321.7952a   137.7687a   915.2162a
  cstot     316.6874a   738.4494a   316.6873a   255.0966a   792.2893a
  cbtot     485.6763a     1.0960f   485.6763a   395.0850a     1.1369f
  cgs       175.4779a   224.2986a   175.4778a    66.4274a   514.6013a
  cgd       148.8147a   143.8277a   148.8147a    42.6865a   404.9048a



 subckt    xclk_gen.x  xclk_gen.x  xclk_gen.x  xclk_gen.x  xclk_gen.x
 element  71:m_0      71:m_1      72:m_0      72:m_1      73:m_0     
 model     0:nmos      0:pmos      0:nmos      0:pmos      0:nmos    
 region        Linear      Cutoff      Cutoff      Linear      Linear
  id         54.8624n   -57.2547n   121.9947n  -257.0380n   986.5605n
  ibs       4.072e-24  -3.765e-24   1.503e-23  -3.364e-23   6.516e-23
  ibd       -75.7425a     4.0002p   -15.9999p   410.3531a    -1.3620f
  vgs       999.9744m   -25.5802u    18.9202u  -999.9811m   999.9744m
  vds        18.9202u  -999.9811m   999.9744m   -25.5865u    21.2646u
  vbs         0.          0.          0.          0.          0.     
  vth       370.5944m  -225.6986m   302.3784m  -310.7612m   370.5942m
  vdsat     337.0862m   -46.2016m    39.8318m  -504.5826m   337.0863m
  vod       629.3800m   225.6730m  -302.3595m  -689.2199m   629.3802m
  beta       14.4096m     6.0227m    81.0664m    18.2781m   230.5529m
  gam eff   441.0000m   394.0000m   441.0000m   394.0000m   441.0000m
  gm         21.3085n     1.4521u     3.0721u   216.2348n   383.1837n
  gds         2.8996m   139.2593n   229.6257n    10.0456m    46.3934m
  gmb        11.2233n   326.1537n   871.6237n    87.0444n   201.8231n
  cdtot       1.7195f     2.3833f     3.5271f    19.5104f    27.5114f
  cgtot       1.1369f     1.6630f     2.2043f    14.6434f    18.1904f
  cstot       1.1430f     2.7389f     4.0816f    12.6766f    18.2873f
  cbtot       1.7655f     4.0710f     6.3214f    18.1907f    28.2486f
  cgs       619.7720a   826.9676a     1.0629f     8.2336f     9.9164f
  cgd       525.6006a   530.2694a   682.9857a     6.4785f     8.4096f



 subckt    xclk_gen.x  xa0_gen.xg  xa0_gen.xg  xa0_gen.xg  xa0_gen.xg
 element  73:m_1      74:m_0      74:m_1      75:m_0      75:m_1     
 model     0:pmos      0:nmos      0:pmos      0:nmos      0:pmos    
 region        Cutoff      Cutoff      Linear      Linear      Cutoff
  id       -916.0696n     7.6210n   -16.0612n    54.8624n   -57.2547n
  ibs      -6.024e-23   9.392e-25  -2.103e-24   4.072e-24  -3.765e-24
  ibd        64.0026p  -999.9954f    25.6407a   -75.7425a     4.0002p
  vgs       -25.5865u     0.         -1.0000    999.9744m   -25.5802u
  vds      -999.9787m   999.9744m   -25.5802u    18.9202u  -999.9811m
  vbs         0.          0.          0.          0.          0.     
  vth      -225.6988m   302.3784m  -310.7612m   370.5944m  -225.6986m
  vdsat     -46.2016m    39.8318m  -504.5937m   337.0862m   -46.2016m
  vod       225.6732m  -302.3784m  -689.2388m   629.3800m   225.6730m
  beta       96.3633m     5.0666m     1.1424m    14.4096m     6.0227m
  gam eff   394.0000m   441.0000m   394.0000m   441.0000m   394.0000m
  gm         23.2334u   191.9183n    13.5110n    21.3085n     1.4521u
  gds         2.2281u    14.3449n   627.8611u     2.8996m   139.2593n
  gmb         5.2184u    54.4515n     5.4389n    11.2233n   326.1537n
  cdtot      38.1333f   220.4434a     1.2194f     1.7195f     2.3833f
  cgtot      26.6086f   137.7687a   915.2162a     1.1369f     1.6630f
  cstot      43.8225f   255.0966a   792.2893a     1.1430f     2.7389f
  cbtot      65.1361f   395.0850a     1.1369f     1.7655f     4.0710f
  cgs        13.2315f    66.4274a   514.6013a   619.7720a   826.9676a
  cgd         8.4843f    42.6865a   404.9048a   525.6006a   530.2694a



 subckt    xa0_gen.xg  xa0_gen.xg  xa0_gen.xg  xa0_gen.xg  xa255_gen.
 element  76:m_0      76:m_1      77:m_0      77:m_1      78:m_0     
 model     0:nmos      0:pmos      0:nmos      0:pmos      0:nmos    
 region        Cutoff      Linear      Linear      Cutoff      Cutoff
  id        121.9947n  -257.0380n   986.5605n  -916.0696n     7.6210n
  ibs       1.503e-23  -3.364e-23   6.516e-23  -6.024e-23   9.392e-25
  ibd       -15.9999p   410.3531a    -1.3620f    64.0026p  -999.9954f
  vgs        18.9202u  -999.9811m   999.9744m   -25.5865u     0.     
  vds       999.9744m   -25.5865u    21.2646u  -999.9787m   999.9744m
  vbs         0.          0.          0.          0.          0.     
  vth       302.3784m  -310.7612m   370.5942m  -225.6988m   302.3784m
  vdsat      39.8318m  -504.5826m   337.0863m   -46.2016m    39.8318m
  vod      -302.3595m  -689.2199m   629.3802m   225.6732m  -302.3784m
  beta       81.0664m    18.2781m   230.5529m    96.3633m     5.0666m
  gam eff   441.0000m   394.0000m   441.0000m   394.0000m   441.0000m
  gm          3.0721u   216.2348n   383.1837n    23.2334u   191.9183n
  gds       229.6257n    10.0456m    46.3934m     2.2281u    14.3449n
  gmb       871.6237n    87.0444n   201.8231n     5.2184u    54.4515n
  cdtot       3.5271f    19.5104f    27.5114f    38.1333f   220.4434a
  cgtot       2.2043f    14.6434f    18.1904f    26.6086f   137.7687a
  cstot       4.0816f    12.6766f    18.2873f    43.8225f   255.0966a
  cbtot       6.3214f    18.1907f    28.2486f    65.1361f   395.0850a
  cgs         1.0629f     8.2336f     9.9164f    13.2315f    66.4274a
  cgd       682.9857a     6.4785f     8.4096f     8.4843f    42.6865a



 subckt    xa255_gen.  xa255_gen.  xa255_gen.  xa255_gen.  xa255_gen.
 element  78:m_1      79:m_0      79:m_1      80:m_0      80:m_1     
 model     0:pmos      0:nmos      0:pmos      0:nmos      0:pmos    
 region        Linear      Linear      Cutoff      Cutoff      Linear
  id        -16.0612n    54.8624n   -57.2547n   121.9947n  -257.0380n
  ibs      -2.103e-24   4.072e-24  -3.765e-24   1.503e-23  -3.364e-23
  ibd        25.6407a   -75.7425a     4.0002p   -15.9999p   410.3531a
  vgs        -1.0000    999.9744m   -25.5802u    18.9202u  -999.9811m
  vds       -25.5802u    18.9202u  -999.9811m   999.9744m   -25.5865u
  vbs         0.          0.          0.          0.          0.     
  vth      -310.7612m   370.5944m  -225.6986m   302.3784m  -310.7612m
  vdsat    -504.5937m   337.0862m   -46.2016m    39.8318m  -504.5826m
  vod      -689.2388m   629.3800m   225.6730m  -302.3595m  -689.2199m
  beta        1.1424m    14.4096m     6.0227m    81.0664m    18.2781m
  gam eff   394.0000m   441.0000m   394.0000m   441.0000m   394.0000m
  gm         13.5110n    21.3085n     1.4521u     3.0721u   216.2348n
  gds       627.8611u     2.8996m   139.2593n   229.6257n    10.0456m
  gmb         5.4389n    11.2233n   326.1537n   871.6237n    87.0444n
  cdtot       1.2194f     1.7195f     2.3833f     3.5271f    19.5104f
  cgtot     915.2162a     1.1369f     1.6630f     2.2043f    14.6434f
  cstot     792.2893a     1.1430f     2.7389f     4.0816f    12.6766f
  cbtot       1.1369f     1.7655f     4.0710f     6.3214f    18.1907f
  cgs       514.6013a   619.7720a   826.9676a     1.0629f     8.2336f
  cgd       404.9048a   525.6006a   530.2694a   682.9857a     6.4785f



 subckt    xa255_gen.  xa255_gen.  xblpc_b_ge  xblpc_b_ge  xblpc_b_ge
 element  81:m_0      81:m_1      82:m_0      82:m_1      83:m_0     
 model     0:nmos      0:pmos      0:nmos      0:pmos      0:nmos    
 region        Linear      Cutoff      Cutoff      Linear      Linear
  id        986.5605n  -916.0696n     7.6210n   -16.0612n    54.8624n
  ibs       6.516e-23  -6.024e-23   9.392e-25  -2.103e-24   4.072e-24
  ibd        -1.3620f    64.0026p  -999.9954f    25.6407a   -75.7425a
  vgs       999.9744m   -25.5865u     0.         -1.0000    999.9744m
  vds        21.2646u  -999.9787m   999.9744m   -25.5802u    18.9202u
  vbs         0.          0.          0.          0.          0.     
  vth       370.5942m  -225.6988m   302.3784m  -310.7612m   370.5944m
  vdsat     337.0863m   -46.2016m    39.8318m  -504.5937m   337.0862m
  vod       629.3802m   225.6732m  -302.3784m  -689.2388m   629.3800m
  beta      230.5529m    96.3633m     5.0666m     1.1424m    14.4096m
  gam eff   441.0000m   394.0000m   441.0000m   394.0000m   441.0000m
  gm        383.1837n    23.2334u   191.9183n    13.5110n    21.3085n
  gds        46.3934m     2.2281u    14.3449n   627.8611u     2.8996m
  gmb       201.8231n     5.2184u    54.4515n     5.4389n    11.2233n
  cdtot      27.5114f    38.1333f   220.4434a     1.2194f     1.7195f
  cgtot      18.1904f    26.6086f   137.7687a   915.2162a     1.1369f
  cstot      18.2873f    43.8225f   255.0966a   792.2893a     1.1430f
  cbtot      28.2486f    65.1361f   395.0850a     1.1369f     1.7655f
  cgs         9.9164f    13.2315f    66.4274a   514.6013a   619.7720a
  cgd         8.4096f     8.4843f    42.6865a   404.9048a   525.6006a



 subckt    xblpc_b_ge  xblpc_b_ge  xblpc_b_ge  xblpc_b_ge  xblpc_b_ge
 element  83:m_1      84:m_0      84:m_1      85:m_0      85:m_1     
 model     0:pmos      0:nmos      0:pmos      0:nmos      0:pmos    
 region        Cutoff      Cutoff      Linear      Linear      Cutoff
  id        -57.2547n   121.9947n  -257.0380n   986.5605n  -916.0696n
  ibs      -3.765e-24   1.503e-23  -3.364e-23   6.516e-23  -6.024e-23
  ibd         4.0002p   -15.9999p   410.3531a    -1.3620f    64.0026p
  vgs       -25.5802u    18.9202u  -999.9811m   999.9744m   -25.5865u
  vds      -999.9811m   999.9744m   -25.5865u    21.2646u  -999.9787m
  vbs         0.          0.          0.          0.          0.     
  vth      -225.6986m   302.3784m  -310.7612m   370.5942m  -225.6988m
  vdsat     -46.2016m    39.8318m  -504.5826m   337.0863m   -46.2016m
  vod       225.6730m  -302.3595m  -689.2199m   629.3802m   225.6732m
  beta        6.0227m    81.0664m    18.2781m   230.5529m    96.3633m
  gam eff   394.0000m   441.0000m   394.0000m   441.0000m   394.0000m
  gm          1.4521u     3.0721u   216.2348n   383.1837n    23.2334u
  gds       139.2593n   229.6257n    10.0456m    46.3934m     2.2281u
  gmb       326.1537n   871.6237n    87.0444n   201.8231n     5.2184u
  cdtot       2.3833f     3.5271f    19.5104f    27.5114f    38.1333f
  cgtot       1.6630f     2.2043f    14.6434f    18.1904f    26.6086f
  cstot       2.7389f     4.0816f    12.6766f    18.2873f    43.8225f
  cbtot       4.0710f     6.3214f    18.1907f    28.2486f    65.1361f
  cgs       826.9676a     1.0629f     8.2336f     9.9164f    13.2315f
  cgd       530.2694a   682.9857a     6.4785f     8.4096f     8.4843f



 ******  
 * file: task3.sp

  ******  transient analysis tnom=  25.000 temp=  27.000 *****
 td_ck2wlr= 182.2680p  targ= 750.3587p   trig= 568.0907p
 td_ck2wlf= 176.6772p  targ=   1.2450n   trig=   1.0683n
 td_wl2bl0= 153.4011p  targ= 903.7599p   trig= 750.3587p
 td_ck2bl0= 335.6692p  targ= 903.7599p   trig= 568.0907p
 td_wl2bl63= 154.6370p  targ= 904.9957p   trig= 750.3587p
 td_ck2bl63= 336.9050p  targ= 904.9957p   trig= 568.0907p
 wl_pw= 494.6461p  targ=   1.2450n   trig= 750.3587p
 idsat=  64.2639u    at= 807.6945p
             from=   0.         to=  10.5000n
 mem_core_power=-600.2955u  from=   2.0000n     to=   3.0000n
 blpc_b_power=  -2.0921m  from=   2.0000n     to=   3.0000n

          ***** job concluded
1****** HSPICE -- F-2011.09-SP2 32-BIT (Feb 27 2012) linux ******               
 ******  
 * file: task3.sp

  ******  job statistics summary tnom=  25.000 temp=  27.000 *****
  
  
 ******  Machine Information  ******
 CPU:
 model name	: Quad-Core AMD Opteron(tm) Processor 2384
 cpu MHz	: 2700.000
  
 OS:
 Linux version 3.2.0-36-generic (buildd@allspice) (gcc version 4.6.3 (Ubuntu/Lin
 aro 4.6.3-1ubuntu5) ) #57-Ubuntu SMP Tue Jan 8 21:44:52 UTC 2013


  ******  HSPICE Threads Information  ******

  Command Line Threads Count :     1
  Available CPU Count        :     8
  Actual Threads Count       :     1


  ******  Circuit Statistics  ******
  # nodes       =     993 # elements   =     284
  # resistors   =       0 # capacitors =      26 # inductors   =       0
  # mutual_inds =       0 # vccs       =       0 # vcvs        =       4
  # cccs        =       8 # ccvs       =       0 # volt_srcs   =      31
  # curr_srcs   =       0 # diodes     =       0 # bjts        =       0
  # jfets       =       0 # mosfets    =     215 # U elements  =       0
  # T elements  =       0 # W elements =       0 # B elements  =       0
  # S elements  =       0 # P elements =       0 # va device   =       0
  # vector_srcs =       0


  ******  Runtime Statistics (seconds)  ******

  analysis           time    # points   tot. iter  conv.iter
  op point           0.08           1          85
  transient         11.28       21001       32498        3883 rev=       558
  readin             0.02
  errchk             0.06
  setup              0.00
  output             0.00


           peak memory used         91.53 megabytes
           total cpu time           11.46 seconds
           total elapsed time       11.89 seconds
           job started at     08:18:25 03/07/2013
           job ended   at     08:18:37 03/07/2013


 lic: Release hspice token(s) 
