$DATA1 SOURCE='HSPICE' VERSION='F-2011.09-SP2 32-BIT'
.TITLE '* file: task5wt.sp'
 td_ck2wlr        td_ck2wlf        wl_pw            max_bit_b         
 min_bit          supply_voltage   temper           alter#            
  1.828e-10        1.774e-10        4.948e-10          1.0065         
 -3.092e-03          1.0000          27.0000        1                 
