$DATA1 SOURCE='HSPICE' VERSION='F-2011.09-SP2 32-BIT'
.TITLE '* file: task1.sp'
 tdr              tdf              supply_power     ck_power          
 temper           alter#            
  1.260e-10        4.436e-10       -9.800e-04       -1.255e-06        
   27.0000        1                 
