 ****** HSPICE -- F-2011.09-SP2 32-BIT (Feb 27 2012) linux ******               
  Copyright (C) 2011 Synopsys, Inc. All Rights Reserved.                        
  Unpublished-rights reserved under US copyright laws.
  This program is protected by law and is subject to the
  terms and conditions of the license agreement from Synopsys.
  Use of this program is your acceptance to be bound by the
  license agreement. HSPICE is the trademark of Synopsys, Inc.
  Input File: task5rd.sp                                                        
  Command line options: -i task5rd.sp -o task5rd.lis
 lic:  
 lic: FLEXlm: v10.8 
 lic: USER:   ronaldv              HOSTNAME: corn28.stanford.edu 
 lic: HOSTID: 001b213a6575         PID:      17590 
 lic: Using FLEXlm license file: 
 lic: 27000@cadlic0.stanford.edu 
 lic: Checkout 1 hspice 
 lic: License/Maintenance for hspice will expire on 16-nov-2013/2012.06 
 lic: 4(in_use)/100(total) FLOATING license(s) on SERVER cadlic0.stanford.edu 
 lic:   
 Init: read install configuration file: /usr/class/ee/synopsys/hspice/F-2011.09-SP2/hspice/meta.cfg

 **warning**  runlvl smaller than 5, reset to 5  when accurate turned on
 scientific notation:
 a=10**-18  f=10**-15  p=10**-12  n=10**-9  u=10**-6
 m=10**-3   k=10**3    x=10**6    g=10**9 
  **warning** (./project.task5.ckt:208) Global net name, "vdd", in subckt pin list. The pin will be connected to the local net. Recommend to not use global net names in subckt pin lists.

 **warning**  runlvl smaller than 5, reset to 5  when accurate turned on
1****** HSPICE -- F-2011.09-SP2 32-BIT (Feb 27 2012) linux ******               
 ******  
 * file: task5rd.sp

  ******  circuit name directory
 circuit number to circuit name directory
   number circuitname                     definition         multiplier
        0 main circuit
        1 xi17.                           decoder_schematic
                                                                 1.00 
        2 xcbl.                           schem_mc_schematic
                                                                 1.00 
        3 xi5.                            schem_mc_schematic
                                                               254.00 
        4 xi4.                            schem_mc_schematic
                                                               254.00 
        5 xi3.                            schem_mc_schematic
                                                                64.52k
        6 xi2.                            schem_mc_schematic
                                                               254.00 
        7 xctr.                           schem_mc_schematic
                                                                 1.00 
        8 xi1.                            schem_mc_schematic
                                                               254.00 
        9 xcbr.                           mc_wcw_schematic   1.00 
       10 xwritel.                        write_schematic    1.00 
       11 xwritem.                        write_schematic  254.00 
       12 xwriter.                        write_schematic    1.00 
       13 xctl.                           schem_mc_wcr_schematic
                                                                 1.00 
       14 xclk_gen.                       clk_gen            1.00 
       15 xa0_gen.                        a0_gen             1.00 
       16 xa255_gen.                      a255_gen           1.00 
       17 xblpc_b_gen.                    blpc_b_gen         1.00 
       18 xi17.xi1.                       predecode_416_schematic
                                                                 1.00 
       19 xi17.xi2.                       decode_stage_schematic
                                                                 1.00 
       20 xi17.xi0.                       predecode_24_schematic
                                                                 1.00 
       21 xwritel.xu0.                    inv_pcell_0        1.00 
       22 xwritel.xu2.                    inv_pcell_1        1.00 
       23 xwritel.xu1.                    inv_pcell_1        1.00 
       24 xwritem.xu0.                    inv_pcell_0      254.00 
       25 xwritem.xu2.                    inv_pcell_1      254.00 
       26 xwritem.xu1.                    inv_pcell_1      254.00 
       27 xwriter.xu0.                    inv_pcell_0        1.00 
       28 xwriter.xu2.                    inv_pcell_1        1.00 
       29 xwriter.xu1.                    inv_pcell_1        1.00 
       30 xclk_gen.xgen.                  signal_gen         1.00 
       31 xa0_gen.xgen.                   signal_gen         1.00 
       32 xa255_gen.xgen.                 signal_gen         1.00 
       33 xblpc_b_gen.xgen.               signal_gen         1.00 
       34 xi17.xi1.xi4.                   nand_pcell_0       1.00 
       35 xi17.xi1.xi6.                   nand_pcell_0       1.00 
       36 xi17.xi1.xu18.                  inv_pcell_12       1.00 
       37 xi17.xi1.xu16.                  inv_pcell_12       1.00 
       38 xi17.xi1.xu17.                  inv_pcell_3        1.00 
       39 xi17.xi1.xu4.                   inv_pcell_3        1.00 
       40 xi17.xi1.xi7.                   nand_pcell_4       1.00 
       41 xi17.xi1.xi5.                   nand_pcell_4       1.00 
       42 xi17.xi1.xu20.                  inv_pcell_5        1.00 
       43 xi17.xi1.xu8.                   inv_pcell_5        1.00 
       44 xi17.xi1.xu12.                  inv_pcell_6        1.00 
       45 xi17.xi1.xu23.                  inv_pcell_6        1.00 
       46 xi17.xi1.xu19.                  inv_pcell_7        1.00 
       47 xi17.xi1.xu21.                  inv_pcell_7        1.00 
       48 xi17.xi1.xu24.                  inv_pcell_8        1.00 
       49 xi17.xi1.xu22.                  inv_pcell_8        1.00 
       50 xi17.xi2.xi10.                  nand_pcell_9       1.00 
       51 xi17.xi2.xi8.                   nand_pcell_9       1.00 
       52 xi17.xi2.xu10.                  inv_pcell_10       1.00 
       53 xi17.xi2.xu12.                  inv_pcell_10       1.00 
       54 xi17.xi2.xi9.                   nand_pcell_11      1.00 
       55 xi17.xi2.xi11.                  nand_pcell_11      1.00 
       56 xi17.xi2.xu16.                  inv_pcell_1213     1.00 
       57 xi17.xi2.xu11.                  inv_pcell_1213     1.00 
       58 xi17.xi0.xi0.                   nand3              1.00 
       59 xi17.xi0.xi3.                   nand3              1.00 
       60 xi17.xi0.xi2.                   nand3              1.00 
       61 xi17.xi0.xi1.                   nand3              1.00 
       62 xi17.xi0.xu1.                   inv_pcell_14       1.00 
       63 xi17.xi0.xu2.                   inv_pcell_14       1.00 
       64 xi17.xi0.xu3.                   inv_pcell_14       1.00 
       65 xi17.xi0.xu0.                   inv_pcell_14       1.00 
       66 xclk_gen.xgen.x_0.              inv_chain_stimulus
                                                                 1.00 
       67 xa0_gen.xgen.x_0.               inv_chain_stimulus
                                                                 1.00 
       68 xa255_gen.xgen.x_0.             inv_chain_stimulus
                                                                 1.00 
       69 xblpc_b_gen.xgen.x_0.           inv_chain_stimulus
                                                                 1.00 
       70 xclk_gen.xgen.x_0.x_0.          inv_stimulus       1.00 
       71 xclk_gen.xgen.x_0.x_1.          inv_stimulus       4.00 
       72 xclk_gen.xgen.x_0.x_2.          inv_stimulus      16.00 
       73 xclk_gen.xgen.x_0.x_3.          inv_stimulus      64.00 
       74 xa0_gen.xgen.x_0.x_0.           inv_stimulus       1.00 
       75 xa0_gen.xgen.x_0.x_1.           inv_stimulus       4.00 
       76 xa0_gen.xgen.x_0.x_2.           inv_stimulus      16.00 
       77 xa0_gen.xgen.x_0.x_3.           inv_stimulus      64.00 
       78 xa255_gen.xgen.x_0.x_0.         inv_stimulus       1.00 
       79 xa255_gen.xgen.x_0.x_1.         inv_stimulus       4.00 
       80 xa255_gen.xgen.x_0.x_2.         inv_stimulus      16.00 
       81 xa255_gen.xgen.x_0.x_3.         inv_stimulus      64.00 
       82 xblpc_b_gen.xgen.x_0.x_0.       inv_stimulus       1.00 
       83 xblpc_b_gen.xgen.x_0.x_1.       inv_stimulus       4.00 
       84 xblpc_b_gen.xgen.x_0.x_2.       inv_stimulus      16.00 
       85 xblpc_b_gen.xgen.x_0.x_3.       inv_stimulus      64.00 


 circuit parameter definitions
  parameter          =  value 

     0:supply                                                  = 650.0000m      
     0:tcyc                                                    =   1.0000n      
     0:trf                                                     =  50.0000p      
     0:vsense                                                  = 150.0000m      
     0:td                                                      = 180.0000p      
     0:td_ck2wlr                                               =   0.           
     0:td_ck2wlf                                               =   0.           
     0:td_wl2bl                                                =   0.           
     0:max_bit_b                                               =   0.           
     0:min_bit                                                 =   0.           
     0:supply_voltage                                          =   0.           
    58:nl                                                      =   2.0000       
    58:nw                                                      =   5.0000       
    58:nm                                                      =   1.0000       
    58:pl                                                      =   2.0000       
    58:pw                                                      =   7.0000       
    58:pm                                                      =   1.0000       
    70:wp                                                      =  24.0000       
    70:lp                                                      =   2.0000       
    70:wn                                                      =   8.0000       
    70:ln                                                      =   2.0000       
    71:wp                                                      =  24.0000       
    71:lp                                                      =   2.0000       
    71:wn                                                      =   8.0000       
    71:ln                                                      =   2.0000       
    72:wp                                                      =  24.0000       
    72:lp                                                      =   2.0000       
    72:wn                                                      =   8.0000       
    72:ln                                                      =   2.0000       
    73:wp                                                      =  24.0000       
    73:lp                                                      =   2.0000       
    73:wn                                                      =   8.0000       
    73:ln                                                      =   2.0000       
    74:wp                                                      =  24.0000       
    74:lp                                                      =   2.0000       
    74:wn                                                      =   8.0000       
    74:ln                                                      =   2.0000       
    75:wp                                                      =  24.0000       
    75:lp                                                      =   2.0000       
    75:wn                                                      =   8.0000       
    75:ln                                                      =   2.0000       
    76:wp                                                      =  24.0000       
    76:lp                                                      =   2.0000       
    76:wn                                                      =   8.0000       
    76:ln                                                      =   2.0000       
    77:wp                                                      =  24.0000       
    77:lp                                                      =   2.0000       
    77:wn                                                      =   8.0000       
    77:ln                                                      =   2.0000       
    78:wp                                                      =  24.0000       
    78:lp                                                      =   2.0000       
    78:wn                                                      =   8.0000       
    78:ln                                                      =   2.0000       
    79:wp                                                      =  24.0000       
    79:lp                                                      =   2.0000       
    79:wn                                                      =   8.0000       
    79:ln                                                      =   2.0000       
    80:wp                                                      =  24.0000       
    80:lp                                                      =   2.0000       
    80:wn                                                      =   8.0000       
    80:ln                                                      =   2.0000       
    81:wp                                                      =  24.0000       
    81:lp                                                      =   2.0000       
    81:wn                                                      =   8.0000       
    81:ln                                                      =   2.0000       
    82:wp                                                      =  24.0000       
    82:lp                                                      =   2.0000       
    82:wn                                                      =   8.0000       
    82:ln                                                      =   2.0000       
    83:wp                                                      =  24.0000       
    83:lp                                                      =   2.0000       
    83:wn                                                      =   8.0000       
    83:ln                                                      =   2.0000       
    84:wp                                                      =  24.0000       
    84:lp                                                      =   2.0000       
    84:wn                                                      =   8.0000       
    84:ln                                                      =   2.0000       
    85:wp                                                      =  24.0000       
    85:lp                                                      =   2.0000       
    85:wn                                                      =   8.0000       
    85:ln                                                      =   2.0000       




 constants  - tnom         kt           vt           gapsi        ni
            298.15000    4.1163e-21    25.69184m     1.11562    1.2565e+16 
  **warning** (/usr/class/ee313/ee313_spice_header.h:18) Both nodes of element vgnd are connected together; Line ignored.
  **info** (/usr/class/ee313/project/stimulus.sp:38) DC voltage reset to initial transient source value              in source       14:vsrc                new dc=  0.0000D+00
 ** warning** associated with encrypted blocks were suppressed

1****** HSPICE -- F-2011.09-SP2 32-BIT (Feb 27 2012) linux ******               
 ******  
 * file: task5rd.sp

  ******  circuit element summary tnom=  25.000 temp=  25.000 *****


 **** capacitors
  
  
                                                                 
 element name        1:c1          1:c0       2:c2       2:c1    
 node1               1:pdec_255    1:pdec     0:bl0      0:bl_b0 
 node2               0:0           0:0        0:0        0:0     
 model                                                           
 cap eff            22.5000f      22.5000f   88.0000a   88.0000a 
 tc1                 0.            0.         0.         0.      
 tc2                 0.            0.         0.         0.      
 scale               1.0000        1.0000     1.0000     1.0000  
 ic                  0.            0.         0.         0.      
 m                   1.0000        1.0000     1.0000     1.0000  
 w                   0.            0.         0.         0.      
 l                   0.            0.         0.         0.      
 temp               25.0000       25.0000    25.0000    25.0000  
  
  
                                                              
 element name        2:c0       3:c2       3:c1       3:c0    
 node1               0:wl255    0:net57    0:net56    0:wl255 
 node2               0:0        0:0        0:0        0:0     
 model                                                        
 cap eff           140.0000a   22.3520f   22.3520f   35.5600f 
 tc1                 0.         0.         0.         0.      
 tc2                 0.         0.         0.         0.      
 scale               1.0000     1.0000     1.0000     1.0000  
 ic                  0.         0.         0.         0.      
 m                   1.0000   254.0000   254.0000   254.0000  
 w                   0.         0.         0.         0.      
 l                   0.         0.         0.         0.      
 temp               25.0000    25.0000    25.0000    25.0000  
  
  
                                                               
 element name        4:c2       4:c1        5:c2       5:c1    
 node1               0:bl63     0:bl_b63    0:net57    0:net56 
 node2               0:0        0:0         0:0        0:0     
 model                                                         
 cap eff            22.3520f   22.3520f     5.6774p    5.6774p 
 tc1                 0.         0.          0.         0.      
 tc2                 0.         0.          0.         0.      
 scale               1.0000     1.0000      1.0000     1.0000  
 ic                  0.         0.          0.         0.      
 m                 254.0000   254.0000     64.5160k   64.5160k 
 w                   0.         0.          0.         0.      
 l                   0.         0.          0.         0.      
 temp               25.0000    25.0000     25.0000    25.0000  
  
  
                                                               
 element name        6:c2       6:c1       7:c2       7:c1     
 node1               0:bl0      0:bl_b0    0:bl63     0:bl_b63 
 node2               0:0        0:0        0:0        0:0      
 model                                                         
 cap eff            22.3520f   22.3520f   88.0000a   88.0000a  
 tc1                 0.         0.         0.         0.       
 tc2                 0.         0.         0.         0.       
 scale               1.0000     1.0000     1.0000     1.0000   
 ic                  0.         0.         0.         0.       
 m                 254.0000   254.0000     1.0000     1.0000   
 w                   0.         0.         0.         0.       
 l                   0.         0.         0.         0.       
 temp               25.0000    25.0000    25.0000    25.0000   
  
  
                                                              
 element name        7:c0       8:c2       8:c1       8:c0    
 node1               0:wl0      0:net57    0:net56    0:wl0   
 node2               0:0        0:0        0:0        0:0     
 model                                                        
 cap eff           140.0000a   22.3520f   22.3520f   35.5600f 
 tc1                 0.         0.         0.         0.      
 tc2                 0.         0.         0.         0.      
 scale               1.0000     1.0000     1.0000     1.0000  
 ic                  0.         0.         0.         0.      
 m                   1.0000   254.0000   254.0000   254.0000  
 w                   0.         0.         0.         0.      
 l                   0.         0.         0.         0.      
 temp               25.0000    25.0000    25.0000    25.0000  
  
  
                                                               
 element name        9:c2       9:c1        9:c0      13:c2    
 node1               0:bl63     0:bl_b63    0:wl255    0:bl0   
 node2               0:0        0:0         0:0        0:0     
 model                                                         
 cap eff            88.0000a   88.0000a   140.0000a   88.0000a 
 tc1                 0.         0.          0.         0.      
 tc2                 0.         0.          0.         0.      
 scale               1.0000     1.0000      1.0000     1.0000  
 ic                  0.         0.          0.         0.      
 m                   1.0000     1.0000      1.0000     1.0000  
 w                   0.         0.          0.         0.      
 l                   0.         0.          0.         0.      
 temp               25.0000    25.0000     25.0000    25.0000  
  
  
                                        
 element name       13:c1      13:c0    
 node1               0:bl_b0    0:wl0   
 node2               0:0        0:0     
 model                                  
 cap eff            88.0000a  140.0000a 
 tc1                 0.         0.      
 tc2                 0.         0.      
 scale               1.0000     1.0000  
 ic                  0.         0.      
 m                   1.0000     1.0000  
 w                   0.         0.      
 l                   0.         0.      
 temp               25.0000    25.0000  


 **** voltage-controlled voltage sources
      name        +             -          dimension  function  scale
       30:e_0            30:net_3           0:0              1      poly       1.    
       31:e_0            31:net_3           0:0              1      poly       1.    
       32:e_0            32:net_3           0:0              1      poly       1.    
       33:e_0            33:net_3           0:0              1      poly       1.    


 **** current-controlled current sources
      name        +             -          dimension  function  multiplier
       30:f_0            30:net_4           0:0              1      poly       1.    
       30:f_1            30:net_4           0:0              1      poly       1.    
       31:f_0            31:net_4           0:0              1      poly       1.    
       31:f_1            31:net_4           0:0              1      poly       1.    
       32:f_0            32:net_4           0:0              1      poly       1.    
       32:f_1            32:net_4           0:0              1      poly       1.    
       33:f_0            33:net_4           0:0              1      poly       1.    
       33:f_1            33:net_4           0:0              1      poly       1.    


 **** independent sources

     name         node1        node2      dc volt    ac mag    ac phase    type
  v_supply  vdd               0                  650.0000m    0.         0.      dc   
  v_supply1  vdd!              0                  650.0000m    0.         0.      dc   
  vwren  wren              0                    0.         0.         0.      dc   
 xcbr.v10 xcbr.net039            wl255             -106.0000m    0.         0.      dc   
 xcbr.v7 xcbr.bit              xcbr.net30              -87.0000m    0.         0.      dc   
 xcbr.v8 xcbr.net029           xcbr.bit_b              -87.0000m    0.         0.      dc   
 xctl.v1 xctl.net056            wl0                106.0000m    0.         0.      dc   
 xctl.v7 xctl.bit              xctl.net30               87.0000m    0.         0.      dc   
 xctl.v8 xctl.net029           xctl.bit_b               87.0000m    0.         0.      dc   
 xclk_gen.vsrc xclk_gen.src               0                    0.         0.         0.      pulse
             initial value     0.     
             pulsed value.   650.0000m
             delay time...   500.0000p
             risetime.....    50.0000p
             falltime.....    50.0000p
             width........   450.0000p
             period.......     1.0000n

 xa0_gen.vsrc xa0_gen.src               0                    0.         0.         0.      pulse
             initial value     0.     
             pulsed value.   650.0000m
             delay time...   375.0000p
             risetime.....    50.0000p
             falltime.....    50.0000p
             width........   950.0000p
             period.......     2.0000n

 xa255_gen.vsrc xa255_gen.src               0                    0.         0.         0.      pulse
             initial value     0.     
             pulsed value.   650.0000m
             delay time...     1.3750n
             risetime.....    50.0000p
             falltime.....    50.0000p
             width........   950.0000p
             period.......     2.0000n

 xblpc_b_gen.vsrc xblpc_b_gen.src               0                    0.         0.         0.      pulse
             initial value     0.     
             pulsed value.   650.0000m
             delay time...   630.0000p
             risetime.....    50.0000p
             falltime.....    50.0000p
             width........   550.0000p
             period.......     1.0000n

 xclk_gen.xgen.v_monitor xclk_gen.xgen.net_4             0                  650.0000m    0.         0.      dc   
 xclk_gen.xgen.v_sense xclk_gen.xgen.net_3             ck                   0.         0.         0.      dc   
 xa0_gen.xgen.v_monitor xa0_gen.xgen.net_4             0                  650.0000m    0.         0.      dc   
 xa0_gen.xgen.v_sense xa0_gen.xgen.net_3             a0                   0.         0.         0.      dc   
 xa255_gen.xgen.v_monitor xa255_gen.xgen.net_4             0                  650.0000m    0.         0.      dc   
 xa255_gen.xgen.v_sense xa255_gen.xgen.net_3             a255                 0.         0.         0.      dc   
 xblpc_b_gen.xgen.v_monitor xblpc_b_gen.xgen.net_4             0                  650.0000m    0.         0.      dc   
 xblpc_b_gen.xgen.v_sense xblpc_b_gen.xgen.net_3             blpc_b               0.         0.         0.      dc   
 xclk_gen.xgen.x_0.x_0.vstimulus_supply xclk_gen.xgen.x_0.x_0.vdd_stimulus      0                  650.0000m    0.         0.      dc   
 xclk_gen.xgen.x_0.x_1.vstimulus_supply xclk_gen.xgen.x_0.x_1.vdd_stimulus      0                  650.0000m    0.         0.      dc   
 xclk_gen.xgen.x_0.x_2.vstimulus_supply xclk_gen.xgen.x_0.x_2.vdd_stimulus      0                  650.0000m    0.         0.      dc   
 xclk_gen.xgen.x_0.x_3.vstimulus_supply xclk_gen.xgen.x_0.x_3.vdd_stimulus      0                  650.0000m    0.         0.      dc   
 xa0_gen.xgen.x_0.x_0.vstimulus_supply xa0_gen.xgen.x_0.x_0.vdd_stimulus      0                  650.0000m    0.         0.      dc   
 xa0_gen.xgen.x_0.x_1.vstimulus_supply xa0_gen.xgen.x_0.x_1.vdd_stimulus      0                  650.0000m    0.         0.      dc   
 xa0_gen.xgen.x_0.x_2.vstimulus_supply xa0_gen.xgen.x_0.x_2.vdd_stimulus      0                  650.0000m    0.         0.      dc   
 xa0_gen.xgen.x_0.x_3.vstimulus_supply xa0_gen.xgen.x_0.x_3.vdd_stimulus      0                  650.0000m    0.         0.      dc   
 xa255_gen.xgen.x_0.x_0.vstimulus_supply xa255_gen.xgen.x_0.x_0.vdd_stimulus      0                  650.0000m    0.         0.      dc   
 xa255_gen.xgen.x_0.x_1.vstimulus_supply xa255_gen.xgen.x_0.x_1.vdd_stimulus      0                  650.0000m    0.         0.      dc   
 xa255_gen.xgen.x_0.x_2.vstimulus_supply xa255_gen.xgen.x_0.x_2.vdd_stimulus      0                  650.0000m    0.         0.      dc   
 xa255_gen.xgen.x_0.x_3.vstimulus_supply xa255_gen.xgen.x_0.x_3.vdd_stimulus      0                  650.0000m    0.         0.      dc   
 xblpc_b_gen.xgen.x_0.x_0.vstimulus_supply xblpc_b_gen.xgen.x_0.x_0.vdd_stimulus      0                  650.0000m    0.         0.      dc   
 xblpc_b_gen.xgen.x_0.x_1.vstimulus_supply xblpc_b_gen.xgen.x_0.x_1.vdd_stimulus      0                  650.0000m    0.         0.      dc   
 xblpc_b_gen.xgen.x_0.x_2.vstimulus_supply xblpc_b_gen.xgen.x_0.x_2.vdd_stimulus      0                  650.0000m    0.         0.      dc   
 xblpc_b_gen.xgen.x_0.x_3.vstimulus_supply xblpc_b_gen.xgen.x_0.x_3.vdd_stimulus      0                  650.0000m    0.         0.      dc   


 **** mosfets


 **** BSIM4 Model (Level 54)
  
  
                                                              
 element name        2:m5       2:m4       2:m1       2:m0    
 drain               2:bit      2:bit_b    0:bl_b0    0:bl0   
 gate                2:bit_b    2:bit      0:wl255    0:wl255 
 source              0:0        0:0        2:bit_b    2:bit   
 bulk                0:0        0:0        0:0        0:0     
 model               0:nmos     0:nmos     0:nmos     0:nmos  
 w eff             122.0000n  122.0000n   78.0000n   78.0000n 
 l eff              29.0000n   29.0000n   29.0000n   29.0000n 
 rd eff              0.         0.         0.         0.      
 rs eff              0.         0.         0.         0.      
 cdsat              11.4887a   11.4887a    7.8700a    7.8700a 
 cssat              11.4887a   11.4887a    7.8700a    7.8700a 
 capbd             178.5462a  178.5462a  133.6681a  133.6681a 
 capbs             152.1990a  152.1990a  116.1033a  116.1033a 
 temp               25.0000    25.0000    25.0000    25.0000  
 aic                                                          
 nf                  1.0000     1.0000     1.0000     1.0000  
 min                 0.         0.         0.         0.      
 rbdb               15.0000    15.0000    15.0000    15.0000  
 rbsb               15.0000    15.0000    15.0000    15.0000  
 rbpb                5.0000     5.0000     5.0000     5.0000  
 rbps               15.0000    15.0000    15.0000    15.0000  
 rbpd               15.0000    15.0000    15.0000    15.0000  
 trnqsmod            0.         0.         0.         0.      
 acnqsmod            0.         0.         0.         0.      
 rbodymod            1.0000     1.0000     1.0000     1.0000  
 rgatemod            1.0000     1.0000     1.0000     1.0000  
 geomod              0.         0.         0.         0.      
 rgeomod             0.         0.         0.         0.      
 delvto              0.         0.         0.         0.      
 mulu0               1.0000     1.0000     1.0000     1.0000  
 delk1               0.         0.         0.         0.      
 delnfct             0.         0.         0.         0.      
 deltox              0.         0.         0.         0.      
 sa                  0.         0.         0.         0.      
 sb                  0.         0.         0.         0.      
 sd                  0.         0.         0.         0.      
 saeff               0.         0.         0.         0.      
 sbeff               0.         0.         0.         0.      
  
  
                                                              
 element name        2:m2       2:m3       3:m5       3:m4    
 drain               2:bit_b    2:bit      3:bit      3:bit_b 
 gate                2:bit      2:bit_b    3:bit_b    3:bit   
 source              0:vdd!     0:vdd!     0:0        0:0     
 bulk                0:vdd!     0:vdd!     0:0        0:0     
 model               0:pmos     0:pmos     0:nmos     0:nmos  
 w eff              78.0000n   78.0000n   30.9880u   30.9880u 
 l eff              29.0000n   29.0000n   29.0000n   29.0000n 
 rd eff              0.         0.         0.         0.      
 rs eff              0.         0.         0.         0.      
 cdsat               7.8700a    7.8700a    2.9181f    2.9181f 
 cssat               7.8700a    7.8700a    2.9181f    2.9181f 
 capbd             133.6681a  133.6681a  178.5462a  178.5462a 
 capbs             116.1033a  116.1033a  152.1990a  152.1990a 
 temp               25.0000    25.0000    25.0000    25.0000  
 aic                                                          
 nf                  1.0000     1.0000     1.0000     1.0000  
 min                 0.         0.         0.         0.      
 rbdb               15.0000    15.0000    15.0000    15.0000  
 rbsb               15.0000    15.0000    15.0000    15.0000  
 rbpb                5.0000     5.0000     5.0000     5.0000  
 rbps               15.0000    15.0000    15.0000    15.0000  
 rbpd               15.0000    15.0000    15.0000    15.0000  
 trnqsmod            0.         0.         0.         0.      
 acnqsmod            0.         0.         0.         0.      
 rbodymod            1.0000     1.0000     1.0000     1.0000  
 rgatemod            1.0000     1.0000     1.0000     1.0000  
 geomod              0.         0.         0.         0.      
 rgeomod             0.         0.         0.         0.      
 delvto              0.         0.         0.         0.      
 mulu0               1.0000     1.0000     1.0000     1.0000  
 delk1               0.         0.         0.         0.      
 delnfct             0.         0.         0.         0.      
 deltox              0.         0.         0.         0.      
 sa                  0.         0.         0.         0.      
 sb                  0.         0.         0.         0.      
 sd                  0.         0.         0.         0.      
 saeff               0.         0.         0.         0.      
 sbeff               0.         0.         0.         0.      
  
  
                                                              
 element name        3:m1       3:m0       3:m2       3:m3    
 drain               0:net56    0:net57    3:bit_b    3:bit   
 gate                0:wl255    0:wl255    3:bit      3:bit_b 
 source              3:bit_b    3:bit      0:vdd!     0:vdd!  
 bulk                0:0        0:0        0:vdd!     0:vdd!  
 model               0:nmos     0:nmos     0:pmos     0:pmos  
 w eff              19.8120u   19.8120u   19.8120u   19.8120u 
 l eff              29.0000n   29.0000n   29.0000n   29.0000n 
 rd eff              0.         0.         0.         0.      
 rs eff              0.         0.         0.         0.      
 cdsat               1.9990f    1.9990f    1.9990f    1.9990f 
 cssat               1.9990f    1.9990f    1.9990f    1.9990f 
 capbd             133.6681a  133.6681a  133.6681a  133.6681a 
 capbs             116.1033a  116.1033a  116.1033a  116.1033a 
 temp               25.0000    25.0000    25.0000    25.0000  
 aic                                                          
 nf                  1.0000     1.0000     1.0000     1.0000  
 min                 0.         0.         0.         0.      
 rbdb               15.0000    15.0000    15.0000    15.0000  
 rbsb               15.0000    15.0000    15.0000    15.0000  
 rbpb                5.0000     5.0000     5.0000     5.0000  
 rbps               15.0000    15.0000    15.0000    15.0000  
 rbpd               15.0000    15.0000    15.0000    15.0000  
 trnqsmod            0.         0.         0.         0.      
 acnqsmod            0.         0.         0.         0.      
 rbodymod            1.0000     1.0000     1.0000     1.0000  
 rgatemod            1.0000     1.0000     1.0000     1.0000  
 geomod              0.         0.         0.         0.      
 rgeomod             0.         0.         0.         0.      
 delvto              0.         0.         0.         0.      
 mulu0               1.0000     1.0000     1.0000     1.0000  
 delk1               0.         0.         0.         0.      
 delnfct             0.         0.         0.         0.      
 deltox              0.         0.         0.         0.      
 sa                  0.         0.         0.         0.      
 sb                  0.         0.         0.         0.      
 sd                  0.         0.         0.         0.      
 saeff               0.         0.         0.         0.      
 sbeff               0.         0.         0.         0.      
  
  
                                                               
 element name        4:m5       4:m4       4:m1        4:m0    
 drain               4:bit      4:bit_b    0:bl_b63    0:bl63  
 gate                4:bit_b    4:bit      0:0         0:0     
 source              0:0        0:0        4:bit_b     4:bit   
 bulk                0:0        0:0        0:0         0:0     
 model               0:nmos     0:nmos     0:nmos      0:nmos  
 w eff              30.9880u   30.9880u   19.8120u    19.8120u 
 l eff              29.0000n   29.0000n   29.0000n    29.0000n 
 rd eff              0.         0.         0.          0.      
 rs eff              0.         0.         0.          0.      
 cdsat               2.9181f    2.9181f    1.9990f     1.9990f 
 cssat               2.9181f    2.9181f    1.9990f     1.9990f 
 capbd             178.5462a  178.5462a  133.6681a   133.6681a 
 capbs             152.1990a  152.1990a  116.1033a   116.1033a 
 temp               25.0000    25.0000    25.0000     25.0000  
 aic                                                           
 nf                  1.0000     1.0000     1.0000      1.0000  
 min                 0.         0.         0.          0.      
 rbdb               15.0000    15.0000    15.0000     15.0000  
 rbsb               15.0000    15.0000    15.0000     15.0000  
 rbpb                5.0000     5.0000     5.0000      5.0000  
 rbps               15.0000    15.0000    15.0000     15.0000  
 rbpd               15.0000    15.0000    15.0000     15.0000  
 trnqsmod            0.         0.         0.          0.      
 acnqsmod            0.         0.         0.          0.      
 rbodymod            1.0000     1.0000     1.0000      1.0000  
 rgatemod            1.0000     1.0000     1.0000      1.0000  
 geomod              0.         0.         0.          0.      
 rgeomod             0.         0.         0.          0.      
 delvto              0.         0.         0.          0.      
 mulu0               1.0000     1.0000     1.0000      1.0000  
 delk1               0.         0.         0.          0.      
 delnfct             0.         0.         0.          0.      
 deltox              0.         0.         0.          0.      
 sa                  0.         0.         0.          0.      
 sb                  0.         0.         0.          0.      
 sd                  0.         0.         0.          0.      
 saeff               0.         0.         0.          0.      
 sbeff               0.         0.         0.          0.      
  
  
                                                              
 element name        4:m2       4:m3       5:m5       5:m4    
 drain               4:bit_b    4:bit      5:bit      5:bit_b 
 gate                4:bit      4:bit_b    5:bit_b    5:bit   
 source              0:vdd!     0:vdd!     0:0        0:0     
 bulk                0:vdd!     0:vdd!     0:0        0:0     
 model               0:pmos     0:pmos     0:nmos     0:nmos  
 w eff              19.8120u   19.8120u    7.8710m    7.8710m 
 l eff              29.0000n   29.0000n   29.0000n   29.0000n 
 rd eff              0.         0.         0.         0.      
 rs eff              0.         0.         0.         0.      
 cdsat               1.9990f    1.9990f  741.2026f  741.2026f 
 cssat               1.9990f    1.9990f  741.2026f  741.2026f 
 capbd             133.6681a  133.6681a  178.5462a  178.5462a 
 capbs             116.1033a  116.1033a  152.1990a  152.1990a 
 temp               25.0000    25.0000    25.0000    25.0000  
 aic                                                          
 nf                  1.0000     1.0000     1.0000     1.0000  
 min                 0.         0.         0.         0.      
 rbdb               15.0000    15.0000    15.0000    15.0000  
 rbsb               15.0000    15.0000    15.0000    15.0000  
 rbpb                5.0000     5.0000     5.0000     5.0000  
 rbps               15.0000    15.0000    15.0000    15.0000  
 rbpd               15.0000    15.0000    15.0000    15.0000  
 trnqsmod            0.         0.         0.         0.      
 acnqsmod            0.         0.         0.         0.      
 rbodymod            1.0000     1.0000     1.0000     1.0000  
 rgatemod            1.0000     1.0000     1.0000     1.0000  
 geomod              0.         0.         0.         0.      
 rgeomod             0.         0.         0.         0.      
 delvto              0.         0.         0.         0.      
 mulu0               1.0000     1.0000     1.0000     1.0000  
 delk1               0.         0.         0.         0.      
 delnfct             0.         0.         0.         0.      
 deltox              0.         0.         0.         0.      
 sa                  0.         0.         0.         0.      
 sb                  0.         0.         0.         0.      
 sd                  0.         0.         0.         0.      
 saeff               0.         0.         0.         0.      
 sbeff               0.         0.         0.         0.      
  
  
                                                              
 element name        5:m1       5:m0       5:m2       5:m3    
 drain               0:net56    0:net57    5:bit_b    5:bit   
 gate                0:0        0:0        5:bit      5:bit_b 
 source              5:bit_b    5:bit      0:vdd!     0:vdd!  
 bulk                0:0        0:0        0:vdd!     0:vdd!  
 model               0:nmos     0:nmos     0:pmos     0:pmos  
 w eff               5.0322m    5.0322m    5.0322m    5.0322m 
 l eff              29.0000n   29.0000n   29.0000n   29.0000n 
 rd eff              0.         0.         0.         0.      
 rs eff              0.         0.         0.         0.      
 cdsat             507.7401f  507.7401f  507.7401f  507.7401f 
 cssat             507.7401f  507.7401f  507.7401f  507.7401f 
 capbd             133.6681a  133.6681a  133.6681a  133.6681a 
 capbs             116.1033a  116.1033a  116.1033a  116.1033a 
 temp               25.0000    25.0000    25.0000    25.0000  
 aic                                                          
 nf                  1.0000     1.0000     1.0000     1.0000  
 min                 0.         0.         0.         0.      
 rbdb               15.0000    15.0000    15.0000    15.0000  
 rbsb               15.0000    15.0000    15.0000    15.0000  
 rbpb                5.0000     5.0000     5.0000     5.0000  
 rbps               15.0000    15.0000    15.0000    15.0000  
 rbpd               15.0000    15.0000    15.0000    15.0000  
 trnqsmod            0.         0.         0.         0.      
 acnqsmod            0.         0.         0.         0.      
 rbodymod            1.0000     1.0000     1.0000     1.0000  
 rgatemod            1.0000     1.0000     1.0000     1.0000  
 geomod              0.         0.         0.         0.      
 rgeomod             0.         0.         0.         0.      
 delvto              0.         0.         0.         0.      
 mulu0               1.0000     1.0000     1.0000     1.0000  
 delk1               0.         0.         0.         0.      
 delnfct             0.         0.         0.         0.      
 deltox              0.         0.         0.         0.      
 sa                  0.         0.         0.         0.      
 sb                  0.         0.         0.         0.      
 sd                  0.         0.         0.         0.      
 saeff               0.         0.         0.         0.      
 sbeff               0.         0.         0.         0.      
  
  
                                                              
 element name        6:m5       6:m4       6:m1       6:m0    
 drain               6:bit      6:bit_b    0:bl_b0    0:bl0   
 gate                6:bit_b    6:bit      0:0        0:0     
 source              0:0        0:0        6:bit_b    6:bit   
 bulk                0:0        0:0        0:0        0:0     
 model               0:nmos     0:nmos     0:nmos     0:nmos  
 w eff              30.9880u   30.9880u   19.8120u   19.8120u 
 l eff              29.0000n   29.0000n   29.0000n   29.0000n 
 rd eff              0.         0.         0.         0.      
 rs eff              0.         0.         0.         0.      
 cdsat               2.9181f    2.9181f    1.9990f    1.9990f 
 cssat               2.9181f    2.9181f    1.9990f    1.9990f 
 capbd             178.5462a  178.5462a  133.6681a  133.6681a 
 capbs             152.1990a  152.1990a  116.1033a  116.1033a 
 temp               25.0000    25.0000    25.0000    25.0000  
 aic                                                          
 nf                  1.0000     1.0000     1.0000     1.0000  
 min                 0.         0.         0.         0.      
 rbdb               15.0000    15.0000    15.0000    15.0000  
 rbsb               15.0000    15.0000    15.0000    15.0000  
 rbpb                5.0000     5.0000     5.0000     5.0000  
 rbps               15.0000    15.0000    15.0000    15.0000  
 rbpd               15.0000    15.0000    15.0000    15.0000  
 trnqsmod            0.         0.         0.         0.      
 acnqsmod            0.         0.         0.         0.      
 rbodymod            1.0000     1.0000     1.0000     1.0000  
 rgatemod            1.0000     1.0000     1.0000     1.0000  
 geomod              0.         0.         0.         0.      
 rgeomod             0.         0.         0.         0.      
 delvto              0.         0.         0.         0.      
 mulu0               1.0000     1.0000     1.0000     1.0000  
 delk1               0.         0.         0.         0.      
 delnfct             0.         0.         0.         0.      
 deltox              0.         0.         0.         0.      
 sa                  0.         0.         0.         0.      
 sb                  0.         0.         0.         0.      
 sd                  0.         0.         0.         0.      
 saeff               0.         0.         0.         0.      
 sbeff               0.         0.         0.         0.      
  
  
                                                              
 element name        6:m2       6:m3       7:m5       7:m4    
 drain               6:bit_b    6:bit      7:bit      7:bit_b 
 gate                6:bit      6:bit_b    7:bit_b    7:bit   
 source              0:vdd!     0:vdd!     0:0        0:0     
 bulk                0:vdd!     0:vdd!     0:0        0:0     
 model               0:pmos     0:pmos     0:nmos     0:nmos  
 w eff              19.8120u   19.8120u  122.0000n  122.0000n 
 l eff              29.0000n   29.0000n   29.0000n   29.0000n 
 rd eff              0.         0.         0.         0.      
 rs eff              0.         0.         0.         0.      
 cdsat               1.9990f    1.9990f   11.4887a   11.4887a 
 cssat               1.9990f    1.9990f   11.4887a   11.4887a 
 capbd             133.6681a  133.6681a  178.5462a  178.5462a 
 capbs             116.1033a  116.1033a  152.1990a  152.1990a 
 temp               25.0000    25.0000    25.0000    25.0000  
 aic                                                          
 nf                  1.0000     1.0000     1.0000     1.0000  
 min                 0.         0.         0.         0.      
 rbdb               15.0000    15.0000    15.0000    15.0000  
 rbsb               15.0000    15.0000    15.0000    15.0000  
 rbpb                5.0000     5.0000     5.0000     5.0000  
 rbps               15.0000    15.0000    15.0000    15.0000  
 rbpd               15.0000    15.0000    15.0000    15.0000  
 trnqsmod            0.         0.         0.         0.      
 acnqsmod            0.         0.         0.         0.      
 rbodymod            1.0000     1.0000     1.0000     1.0000  
 rgatemod            1.0000     1.0000     1.0000     1.0000  
 geomod              0.         0.         0.         0.      
 rgeomod             0.         0.         0.         0.      
 delvto              0.         0.         0.         0.      
 mulu0               1.0000     1.0000     1.0000     1.0000  
 delk1               0.         0.         0.         0.      
 delnfct             0.         0.         0.         0.      
 deltox              0.         0.         0.         0.      
 sa                  0.         0.         0.         0.      
 sb                  0.         0.         0.         0.      
 sd                  0.         0.         0.         0.      
 saeff               0.         0.         0.         0.      
 sbeff               0.         0.         0.         0.      
  
  
                                                               
 element name        7:m1        7:m0       7:m2       7:m3    
 drain               0:bl_b63    0:bl63     7:bit_b    7:bit   
 gate                0:wl0       0:wl0      7:bit      7:bit_b 
 source              7:bit_b     7:bit      0:vdd!     0:vdd!  
 bulk                0:0         0:0        0:vdd!     0:vdd!  
 model               0:nmos      0:nmos     0:pmos     0:pmos  
 w eff              78.0000n    78.0000n   78.0000n   78.0000n 
 l eff              29.0000n    29.0000n   29.0000n   29.0000n 
 rd eff              0.          0.         0.         0.      
 rs eff              0.          0.         0.         0.      
 cdsat               7.8700a     7.8700a    7.8700a    7.8700a 
 cssat               7.8700a     7.8700a    7.8700a    7.8700a 
 capbd             133.6681a   133.6681a  133.6681a  133.6681a 
 capbs             116.1033a   116.1033a  116.1033a  116.1033a 
 temp               25.0000     25.0000    25.0000    25.0000  
 aic                                                           
 nf                  1.0000      1.0000     1.0000     1.0000  
 min                 0.          0.         0.         0.      
 rbdb               15.0000     15.0000    15.0000    15.0000  
 rbsb               15.0000     15.0000    15.0000    15.0000  
 rbpb                5.0000      5.0000     5.0000     5.0000  
 rbps               15.0000     15.0000    15.0000    15.0000  
 rbpd               15.0000     15.0000    15.0000    15.0000  
 trnqsmod            0.          0.         0.         0.      
 acnqsmod            0.          0.         0.         0.      
 rbodymod            1.0000      1.0000     1.0000     1.0000  
 rgatemod            1.0000      1.0000     1.0000     1.0000  
 geomod              0.          0.         0.         0.      
 rgeomod             0.          0.         0.         0.      
 delvto              0.          0.         0.         0.      
 mulu0               1.0000      1.0000     1.0000     1.0000  
 delk1               0.          0.         0.         0.      
 delnfct             0.          0.         0.         0.      
 deltox              0.          0.         0.         0.      
 sa                  0.          0.         0.         0.      
 sb                  0.          0.         0.         0.      
 sd                  0.          0.         0.         0.      
 saeff               0.          0.         0.         0.      
 sbeff               0.          0.         0.         0.      
  
  
                                                              
 element name        8:m5       8:m4       8:m1       8:m0    
 drain               8:bit      8:bit_b    0:net56    0:net57 
 gate                8:bit_b    8:bit      0:wl0      0:wl0   
 source              0:0        0:0        8:bit_b    8:bit   
 bulk                0:0        0:0        0:0        0:0     
 model               0:nmos     0:nmos     0:nmos     0:nmos  
 w eff              30.9880u   30.9880u   19.8120u   19.8120u 
 l eff              29.0000n   29.0000n   29.0000n   29.0000n 
 rd eff              0.         0.         0.         0.      
 rs eff              0.         0.         0.         0.      
 cdsat               2.9181f    2.9181f    1.9990f    1.9990f 
 cssat               2.9181f    2.9181f    1.9990f    1.9990f 
 capbd             178.5462a  178.5462a  133.6681a  133.6681a 
 capbs             152.1990a  152.1990a  116.1033a  116.1033a 
 temp               25.0000    25.0000    25.0000    25.0000  
 aic                                                          
 nf                  1.0000     1.0000     1.0000     1.0000  
 min                 0.         0.         0.         0.      
 rbdb               15.0000    15.0000    15.0000    15.0000  
 rbsb               15.0000    15.0000    15.0000    15.0000  
 rbpb                5.0000     5.0000     5.0000     5.0000  
 rbps               15.0000    15.0000    15.0000    15.0000  
 rbpd               15.0000    15.0000    15.0000    15.0000  
 trnqsmod            0.         0.         0.         0.      
 acnqsmod            0.         0.         0.         0.      
 rbodymod            1.0000     1.0000     1.0000     1.0000  
 rgatemod            1.0000     1.0000     1.0000     1.0000  
 geomod              0.         0.         0.         0.      
 rgeomod             0.         0.         0.         0.      
 delvto              0.         0.         0.         0.      
 mulu0               1.0000     1.0000     1.0000     1.0000  
 delk1               0.         0.         0.         0.      
 delnfct             0.         0.         0.         0.      
 deltox              0.         0.         0.         0.      
 sa                  0.         0.         0.         0.      
 sb                  0.         0.         0.         0.      
 sd                  0.         0.         0.         0.      
 saeff               0.         0.         0.         0.      
 sbeff               0.         0.         0.         0.      
  
  
                                                               
 element name        8:m2       8:m3       9:m0        9:m4    
 drain               8:bit_b    8:bit      0:bl63      9:bit_b 
 gate                8:bit      8:bit_b    9:net039    9:net30 
 source              0:vdd!     0:vdd!     9:bit       0:0     
 bulk                0:vdd!     0:vdd!     0:0         0:0     
 model               0:pmos     0:pmos     0:nmos      0:nmos  
 w eff              19.8120u   19.8120u   78.0000n   122.0000n 
 l eff              29.0000n   29.0000n   29.0000n    29.0000n 
 rd eff              0.         0.         0.          0.      
 rs eff              0.         0.         0.          0.      
 cdsat               1.9990f    1.9990f    7.8700a    11.4887a 
 cssat               1.9990f    1.9990f    7.8700a    11.4887a 
 capbd             133.6681a  133.6681a  133.6681a   178.5462a 
 capbs             116.1033a  116.1033a  116.1033a   152.1990a 
 temp               25.0000    25.0000    25.0000     25.0000  
 aic                                                           
 nf                  1.0000     1.0000     1.0000      1.0000  
 min                 0.         0.         0.          0.      
 rbdb               15.0000    15.0000    15.0000     15.0000  
 rbsb               15.0000    15.0000    15.0000     15.0000  
 rbpb                5.0000     5.0000     5.0000      5.0000  
 rbps               15.0000    15.0000    15.0000     15.0000  
 rbpd               15.0000    15.0000    15.0000     15.0000  
 trnqsmod            0.         0.         0.          0.      
 acnqsmod            0.         0.         0.          0.      
 rbodymod            1.0000     1.0000     1.0000      1.0000  
 rgatemod            1.0000     1.0000     1.0000      1.0000  
 geomod              0.         0.         0.          0.      
 rgeomod             0.         0.         0.          0.      
 delvto              0.         0.         0.          0.      
 mulu0               1.0000     1.0000     1.0000      1.0000  
 delk1               0.         0.         0.          0.      
 delnfct             0.         0.         0.          0.      
 deltox              0.         0.         0.          0.      
 sa                  0.         0.         0.          0.      
 sb                  0.         0.         0.          0.      
 sd                  0.         0.         0.          0.      
 saeff               0.         0.         0.          0.      
 sbeff               0.         0.         0.          0.      
  
  
                                                                 
 element name        9:m5        9:m1        9:m2       9:m3     
 drain               9:bit       0:bl_b63    9:bit_b    9:bit    
 gate                9:net029    0:wl255     9:net30    9:net029 
 source              0:0         9:bit_b     0:vdd!     0:vdd!   
 bulk                0:0         0:0         0:vdd!     0:vdd!   
 model               0:nmos      0:nmos      0:pmos     0:pmos   
 w eff             122.0000n    78.0000n    78.0000n   78.0000n  
 l eff              29.0000n    29.0000n    29.0000n   29.0000n  
 rd eff              0.          0.          0.         0.       
 rs eff              0.          0.          0.         0.       
 cdsat              11.4887a     7.8700a     7.8700a    7.8700a  
 cssat              11.4887a     7.8700a     7.8700a    7.8700a  
 capbd             178.5462a   133.6681a   133.6681a  133.6681a  
 capbs             152.1990a   116.1033a   116.1033a  116.1033a  
 temp               25.0000     25.0000     25.0000    25.0000   
 aic                                                             
 nf                  1.0000      1.0000      1.0000     1.0000   
 min                 0.          0.          0.         0.       
 rbdb               15.0000     15.0000     15.0000    15.0000   
 rbsb               15.0000     15.0000     15.0000    15.0000   
 rbpb                5.0000      5.0000      5.0000     5.0000   
 rbps               15.0000     15.0000     15.0000    15.0000   
 rbpd               15.0000     15.0000     15.0000    15.0000   
 trnqsmod            0.          0.          0.         0.       
 acnqsmod            0.          0.          0.         0.       
 rbodymod            1.0000      1.0000      1.0000     1.0000   
 rgatemod            1.0000      1.0000      1.0000     1.0000   
 geomod              0.          0.          0.         0.       
 rgeomod             0.          0.          0.         0.       
 delvto              0.          0.          0.         0.       
 mulu0               1.0000      1.0000      1.0000     1.0000   
 delk1               0.          0.          0.         0.       
 delnfct             0.          0.          0.         0.       
 deltox              0.          0.          0.         0.       
 sa                  0.          0.          0.         0.       
 sb                  0.          0.          0.         0.       
 sd                  0.          0.          0.         0.       
 saeff               0.          0.          0.         0.       
 sbeff               0.          0.          0.         0.       
  
  
                                                                 
 element name       10:m5       10:m1       10:m0       10:m4    
 drain               0:bl0       0:bl0       0:bl_b0    10:net23 
 gate                0:blpc_b    0:blpc_b    0:blpc_b    0:wren  
 source              0:vdd!      0:bl_b0     0:vdd!      0:bl_b0 
 bulk                0:vdd!      0:vdd!      0:vdd!      0:0     
 model               0:pmos      0:pmos      0:pmos      0:nmos  
 w eff               1.7500u     1.7500u     1.7500u     1.9700u 
 l eff              29.0000n    29.0000n    29.0000n    29.0000n 
 rd eff              0.          0.          0.          0.      
 rs eff              0.          0.          0.          0.      
 cdsat             145.3797a   145.3797a   145.3797a   163.4731a 
 cssat             145.3797a   145.3797a   145.3797a   163.4731a 
 capbd               1.8390f     1.8390f     1.8390f     2.0634f 
 capbs               1.4877f     1.4877f     1.4877f     1.6682f 
 temp               25.0000     25.0000     25.0000     25.0000  
 aic                                                             
 nf                  1.0000      1.0000      1.0000      1.0000  
 min                 0.          0.          0.          0.      
 rbdb               15.0000     15.0000     15.0000     15.0000  
 rbsb               15.0000     15.0000     15.0000     15.0000  
 rbpb                5.0000      5.0000      5.0000      5.0000  
 rbps               15.0000     15.0000     15.0000     15.0000  
 rbpd               15.0000     15.0000     15.0000     15.0000  
 trnqsmod            0.          0.          0.          0.      
 acnqsmod            0.          0.          0.          0.      
 rbodymod            1.0000      1.0000      1.0000      1.0000  
 rgatemod            1.0000      1.0000      1.0000      1.0000  
 geomod              0.          0.          0.          0.      
 rgeomod             0.          0.          0.          0.      
 delvto              0.          0.          0.          0.      
 mulu0               1.0000      1.0000      1.0000      1.0000  
 delk1               0.          0.          0.          0.      
 delnfct             0.          0.          0.          0.      
 deltox              0.          0.          0.          0.      
 sa                  0.          0.          0.          0.      
 sb                  0.          0.          0.          0.      
 sd                  0.          0.          0.          0.      
 saeff               0.          0.          0.          0.      
 sbeff               0.          0.          0.          0.      
  
  
                                                                 
 element name       10:m3      11:m5       11:m1       11:m0     
 drain              10:net26    0:net57     0:net57     0:net56  
 gate                0:wren     0:blpc_b    0:blpc_b    0:blpc_b 
 source              0:bl0      0:vdd!      0:net56     0:vdd!   
 bulk                0:0        0:vdd!      0:vdd!      0:vdd!   
 model               0:nmos     0:pmos      0:pmos      0:pmos   
 w eff               1.9700u  444.5000u   444.5000u   444.5000u  
 l eff              29.0000n   29.0000n    29.0000n    29.0000n  
 rd eff              0.         0.          0.          0.       
 rs eff              0.         0.          0.          0.       
 cdsat             163.4731a   36.9264f    36.9264f    36.9264f  
 cssat             163.4731a   36.9264f    36.9264f    36.9264f  
 capbd               2.0634f    1.8390f     1.8390f     1.8390f  
 capbs               1.6682f    1.4877f     1.4877f     1.4877f  
 temp               25.0000    25.0000     25.0000     25.0000   
 aic                                                             
 nf                  1.0000     1.0000      1.0000      1.0000   
 min                 0.         0.          0.          0.       
 rbdb               15.0000    15.0000     15.0000     15.0000   
 rbsb               15.0000    15.0000     15.0000     15.0000   
 rbpb                5.0000     5.0000      5.0000      5.0000   
 rbps               15.0000    15.0000     15.0000     15.0000   
 rbpd               15.0000    15.0000     15.0000     15.0000   
 trnqsmod            0.         0.          0.          0.       
 acnqsmod            0.         0.          0.          0.       
 rbodymod            1.0000     1.0000      1.0000      1.0000   
 rgatemod            1.0000     1.0000      1.0000      1.0000   
 geomod              0.         0.          0.          0.       
 rgeomod             0.         0.          0.          0.       
 delvto              0.         0.          0.          0.       
 mulu0               1.0000     1.0000      1.0000      1.0000   
 delk1               0.         0.          0.          0.       
 delnfct             0.         0.          0.          0.       
 deltox              0.         0.          0.          0.       
 sa                  0.         0.          0.          0.       
 sb                  0.         0.          0.          0.       
 sd                  0.         0.          0.          0.       
 saeff               0.         0.          0.          0.       
 sbeff               0.         0.          0.          0.       
  
  
                                                                
 element name       11:m4      11:m3      12:m5       12:m1     
 drain              11:net23   11:net26    0:bl63      0:bl63   
 gate                0:wren     0:wren     0:blpc_b    0:blpc_b 
 source              0:net56    0:net57    0:vdd!      0:bl_b63 
 bulk                0:0        0:0        0:vdd!      0:vdd!   
 model               0:nmos     0:nmos     0:pmos      0:pmos   
 w eff             500.3800u  500.3800u    1.7500u     1.7500u  
 l eff              29.0000n   29.0000n   29.0000n    29.0000n  
 rd eff              0.         0.         0.          0.       
 rs eff              0.         0.         0.          0.       
 cdsat              41.5222f   41.5222f  145.3797a   145.3797a  
 cssat              41.5222f   41.5222f  145.3797a   145.3797a  
 capbd               2.0634f    2.0634f    1.8390f     1.8390f  
 capbs               1.6682f    1.6682f    1.4877f     1.4877f  
 temp               25.0000    25.0000    25.0000     25.0000   
 aic                                                            
 nf                  1.0000     1.0000     1.0000      1.0000   
 min                 0.         0.         0.          0.       
 rbdb               15.0000    15.0000    15.0000     15.0000   
 rbsb               15.0000    15.0000    15.0000     15.0000   
 rbpb                5.0000     5.0000     5.0000      5.0000   
 rbps               15.0000    15.0000    15.0000     15.0000   
 rbpd               15.0000    15.0000    15.0000     15.0000   
 trnqsmod            0.         0.         0.          0.       
 acnqsmod            0.         0.         0.          0.       
 rbodymod            1.0000     1.0000     1.0000      1.0000   
 rgatemod            1.0000     1.0000     1.0000      1.0000   
 geomod              0.         0.         0.          0.       
 rgeomod             0.         0.         0.          0.       
 delvto              0.         0.         0.          0.       
 mulu0               1.0000     1.0000     1.0000      1.0000   
 delk1               0.         0.         0.          0.       
 delnfct             0.         0.         0.          0.       
 deltox              0.         0.         0.          0.       
 sa                  0.         0.         0.          0.       
 sb                  0.         0.         0.          0.       
 sd                  0.         0.         0.          0.       
 saeff               0.         0.         0.          0.       
 sbeff               0.         0.         0.          0.       
  
  
                                                                
 element name       12:m0       12:m4       12:m3      13:m0    
 drain               0:bl_b63   12:net23    12:net26    0:bl0   
 gate                0:blpc_b    0:wren      0:wren     0:wl0   
 source              0:vdd!      0:bl_b63    0:bl63    13:bit   
 bulk                0:vdd!      0:0         0:0        0:0     
 model               0:pmos      0:nmos      0:nmos     0:nmos  
 w eff               1.7500u     1.9700u     1.9700u   78.0000n 
 l eff              29.0000n    29.0000n    29.0000n   29.0000n 
 rd eff              0.          0.          0.         0.      
 rs eff              0.          0.          0.         0.      
 cdsat             145.3797a   163.4731a   163.4731a    7.8700a 
 cssat             145.3797a   163.4731a   163.4731a    7.8700a 
 capbd               1.8390f     2.0634f     2.0634f  133.6681a 
 capbs               1.4877f     1.6682f     1.6682f  116.1033a 
 temp               25.0000     25.0000     25.0000    25.0000  
 aic                                                            
 nf                  1.0000      1.0000      1.0000     1.0000  
 min                 0.          0.          0.         0.      
 rbdb               15.0000     15.0000     15.0000    15.0000  
 rbsb               15.0000     15.0000     15.0000    15.0000  
 rbpb                5.0000      5.0000      5.0000     5.0000  
 rbps               15.0000     15.0000     15.0000    15.0000  
 rbpd               15.0000     15.0000     15.0000    15.0000  
 trnqsmod            0.          0.          0.         0.      
 acnqsmod            0.          0.          0.         0.      
 rbodymod            1.0000      1.0000      1.0000     1.0000  
 rgatemod            1.0000      1.0000      1.0000     1.0000  
 geomod              0.          0.          0.         0.      
 rgeomod             0.          0.          0.         0.      
 delvto              0.          0.          0.         0.      
 mulu0               1.0000      1.0000      1.0000     1.0000  
 delk1               0.          0.          0.         0.      
 delnfct             0.          0.          0.         0.      
 deltox              0.          0.          0.         0.      
 sa                  0.          0.          0.         0.      
 sb                  0.          0.          0.         0.      
 sd                  0.          0.          0.         0.      
 saeff               0.          0.          0.         0.      
 sbeff               0.          0.          0.         0.      
  
  
                                                                
 element name       13:m4      13:m5       13:m1       13:m2    
 drain              13:bit_b   13:bit       0:bl_b0    13:bit_b 
 gate               13:net30   13:net029   13:net056   13:net30 
 source              0:0        0:0        13:bit_b     0:vdd!  
 bulk                0:0        0:0         0:0         0:vdd!  
 model               0:nmos     0:nmos      0:nmos      0:pmos  
 w eff             122.0000n  122.0000n    78.0000n    78.0000n 
 l eff              29.0000n   29.0000n    29.0000n    29.0000n 
 rd eff              0.         0.          0.          0.      
 rs eff              0.         0.          0.          0.      
 cdsat              11.4887a   11.4887a     7.8700a     7.8700a 
 cssat              11.4887a   11.4887a     7.8700a     7.8700a 
 capbd             178.5462a  178.5462a   133.6681a   133.6681a 
 capbs             152.1990a  152.1990a   116.1033a   116.1033a 
 temp               25.0000    25.0000     25.0000     25.0000  
 aic                                                            
 nf                  1.0000     1.0000      1.0000      1.0000  
 min                 0.         0.          0.          0.      
 rbdb               15.0000    15.0000     15.0000     15.0000  
 rbsb               15.0000    15.0000     15.0000     15.0000  
 rbpb                5.0000     5.0000      5.0000      5.0000  
 rbps               15.0000    15.0000     15.0000     15.0000  
 rbpd               15.0000    15.0000     15.0000     15.0000  
 trnqsmod            0.         0.          0.          0.      
 acnqsmod            0.         0.          0.          0.      
 rbodymod            1.0000     1.0000      1.0000      1.0000  
 rgatemod            1.0000     1.0000      1.0000      1.0000  
 geomod              0.         0.          0.          0.      
 rgeomod             0.         0.          0.          0.      
 delvto              0.         0.          0.          0.      
 mulu0               1.0000     1.0000      1.0000      1.0000  
 delk1               0.         0.          0.          0.      
 delnfct             0.         0.          0.          0.      
 deltox              0.         0.          0.          0.      
 sa                  0.         0.          0.          0.      
 sb                  0.         0.          0.          0.      
 sd                  0.         0.          0.          0.      
 saeff               0.         0.          0.          0.      
 sbeff               0.         0.          0.          0.      
  
  
                                                               
 element name       13:m3       21:m1      21:m2      22:m1    
 drain              13:bit      10:net18   10:net18   10:net23 
 gate               13:net029    0:vdd!     0:vdd!     0:vdd!  
 source              0:vdd!      0:vdd!     0:0        0:vdd!  
 bulk                0:vdd!      0:vdd!     0:0        0:vdd!  
 model               0:pmos      0:pmos     0:nmos     0:pmos  
 w eff              78.0000n   166.0000n   78.0000n  254.0000n 
 l eff              29.0000n    29.0000n   29.0000n   29.0000n 
 rd eff              0.          0.         0.         0.      
 rs eff              0.          0.         0.         0.      
 cdsat               7.8700a    15.1073a    7.8700a   22.3447a 
 cssat               7.8700a    15.1073a    7.8700a   22.3447a 
 capbd             133.6681a   223.4243a  133.6681a  313.1804a 
 capbs             116.1033a   188.2947a  116.1033a  260.4860a 
 temp               25.0000     25.0000    25.0000    25.0000  
 aic                                                           
 nf                  1.0000      1.0000     1.0000     1.0000  
 min                 0.          0.         0.         0.      
 rbdb               15.0000     15.0000    15.0000    15.0000  
 rbsb               15.0000     15.0000    15.0000    15.0000  
 rbpb                5.0000      5.0000     5.0000     5.0000  
 rbps               15.0000     15.0000    15.0000    15.0000  
 rbpd               15.0000     15.0000    15.0000    15.0000  
 trnqsmod            0.          0.         0.         0.      
 acnqsmod            0.          0.         0.         0.      
 rbodymod            1.0000      1.0000     1.0000     1.0000  
 rgatemod            1.0000      1.0000     1.0000     1.0000  
 geomod              0.          0.         0.         0.      
 rgeomod             0.          0.         0.         0.      
 delvto              0.          0.         0.         0.      
 mulu0               1.0000      1.0000     1.0000     1.0000  
 delk1               0.          0.         0.         0.      
 delnfct             0.          0.         0.         0.      
 deltox              0.          0.         0.         0.      
 sa                  0.          0.         0.         0.      
 sb                  0.          0.         0.         0.      
 sd                  0.          0.         0.         0.      
 saeff               0.          0.         0.         0.      
 sbeff               0.          0.         0.         0.      
  
  
                                                              
 element name       22:m2      23:m1      23:m2      24:m1    
 drain              10:net23   10:net26   10:net26   11:net18 
 gate                0:vdd!    10:net18   10:net18    0:vdd!  
 source              0:0        0:vdd!     0:0        0:vdd!  
 bulk                0:0        0:vdd!     0:0        0:vdd!  
 model               0:nmos     0:pmos     0:nmos     0:pmos  
 w eff             518.0000n  254.0000n  518.0000n   42.1640u 
 l eff              29.0000n   29.0000n   29.0000n   29.0000n 
 rd eff              0.         0.         0.         0.      
 rs eff              0.         0.         0.         0.      
 cdsat              44.0567a   22.3447a   44.0567a    3.8373f 
 cssat              44.0567a   22.3447a   44.0567a    3.8373f 
 capbd             582.4488a  313.1804a  582.4488a  223.4243a 
 capbs             477.0600a  260.4860a  477.0600a  188.2947a 
 temp               25.0000    25.0000    25.0000    25.0000  
 aic                                                          
 nf                  1.0000     1.0000     1.0000     1.0000  
 min                 0.         0.         0.         0.      
 rbdb               15.0000    15.0000    15.0000    15.0000  
 rbsb               15.0000    15.0000    15.0000    15.0000  
 rbpb                5.0000     5.0000     5.0000     5.0000  
 rbps               15.0000    15.0000    15.0000    15.0000  
 rbpd               15.0000    15.0000    15.0000    15.0000  
 trnqsmod            0.         0.         0.         0.      
 acnqsmod            0.         0.         0.         0.      
 rbodymod            1.0000     1.0000     1.0000     1.0000  
 rgatemod            1.0000     1.0000     1.0000     1.0000  
 geomod              0.         0.         0.         0.      
 rgeomod             0.         0.         0.         0.      
 delvto              0.         0.         0.         0.      
 mulu0               1.0000     1.0000     1.0000     1.0000  
 delk1               0.         0.         0.         0.      
 delnfct             0.         0.         0.         0.      
 deltox              0.         0.         0.         0.      
 sa                  0.         0.         0.         0.      
 sb                  0.         0.         0.         0.      
 sd                  0.         0.         0.         0.      
 saeff               0.         0.         0.         0.      
 sbeff               0.         0.         0.         0.      
  
  
                                                              
 element name       24:m2      25:m1      25:m2      26:m1    
 drain              11:net18   11:net23   11:net23   11:net26 
 gate                0:vdd!     0:vdd!     0:vdd!    11:net18 
 source              0:0        0:vdd!     0:0        0:vdd!  
 bulk                0:0        0:vdd!     0:0        0:vdd!  
 model               0:nmos     0:pmos     0:nmos     0:pmos  
 w eff              19.8120u   64.5160u  131.5720u   64.5160u 
 l eff              29.0000n   29.0000n   29.0000n   29.0000n 
 rd eff              0.         0.         0.         0.      
 rs eff              0.         0.         0.         0.      
 cdsat               1.9990f    5.6756f   11.1904f    5.6756f 
 cssat               1.9990f    5.6756f   11.1904f    5.6756f 
 capbd             133.6681a  313.1804a  582.4488a  313.1804a 
 capbs             116.1033a  260.4860a  477.0600a  260.4860a 
 temp               25.0000    25.0000    25.0000    25.0000  
 aic                                                          
 nf                  1.0000     1.0000     1.0000     1.0000  
 min                 0.         0.         0.         0.      
 rbdb               15.0000    15.0000    15.0000    15.0000  
 rbsb               15.0000    15.0000    15.0000    15.0000  
 rbpb                5.0000     5.0000     5.0000     5.0000  
 rbps               15.0000    15.0000    15.0000    15.0000  
 rbpd               15.0000    15.0000    15.0000    15.0000  
 trnqsmod            0.         0.         0.         0.      
 acnqsmod            0.         0.         0.         0.      
 rbodymod            1.0000     1.0000     1.0000     1.0000  
 rgatemod            1.0000     1.0000     1.0000     1.0000  
 geomod              0.         0.         0.         0.      
 rgeomod             0.         0.         0.         0.      
 delvto              0.         0.         0.         0.      
 mulu0               1.0000     1.0000     1.0000     1.0000  
 delk1               0.         0.         0.         0.      
 delnfct             0.         0.         0.         0.      
 deltox              0.         0.         0.         0.      
 sa                  0.         0.         0.         0.      
 sb                  0.         0.         0.         0.      
 sd                  0.         0.         0.         0.      
 saeff               0.         0.         0.         0.      
[...]
  gm        400.5241p   400.5170p   400.5241p    15.5404n     1.3545n
  gds       107.3923u   107.3951u   107.3923u     6.0092n   298.6480u
  gmb       114.3081p   114.3074p   114.3081p     4.6021n   418.1708p
  cdtot     360.6121a   360.6131a   360.6121a   192.5428a   259.5775a
  cgtot     244.3119a   244.3125a   244.3119a    95.8365a   164.4370a
  cstot     259.8695a   259.8694a   259.8695a   174.4332a   195.1108a
  cbtot     393.6143a   393.6143a   393.6143a   306.2556a   304.2592a
  cgs       137.8149a   137.8151a   137.8149a    40.0139a    91.8883a
  cgd       105.0429a   105.0433a   105.0429a    38.2650a    71.1219a



 subckt    xi17.xi0.x  xi17.xi0.x  xi17.xi0.x  xi17.xi0.x  xi17.xi0.x
 element  60:m1       60:m7       60:m6       60:m0       61:m10     
 model     0:nmos      0:pmos      0:pmos      0:pmos      0:nmos    
 region        Cutoff      Linear      Cutoff      Linear      Cutoff
  id        539.3111p  -352.6893p   -36.2959f  -352.6893p   340.5009p
  ibs       -42.3424f  -4.444e-28   1.111e-28  -4.444e-28   1.532e-26
  ibd      -650.0102f     3.2865a     3.2865a     3.2865a   -16.3361f
  vgs       -42.3206m  -649.9891m     0.       -649.9891m    10.9338u
  vds       607.6652m    -3.2841u    -3.2841u    -3.2841u    16.3298m
  vbs       -42.3316m     0.          0.          0.          0.     
  vth       339.2619m  -310.7631m  -310.7631m  -310.7631m   369.4816m
  vdsat      40.0499m  -290.9272m   -46.2174m  -290.9272m    40.2311m
  vod      -381.5826m  -339.2260m   310.7631m  -339.2260m  -369.4706m
  beta        2.9175m   368.4497u   367.4759u   368.4497u     2.8096m
  gam eff   441.0000m   394.0000m   394.0000m   394.0000m   441.0000m
  gm         13.9295n   837.3122p   953.2412f   837.3122p     8.7109n
  gds         1.0478n   107.3917u    11.0516n   107.3917u    15.9832n
  gmb         4.0347n   238.9654p   228.7464f   238.9654p     2.5902n
  cdtot     159.2288a   360.6110a   258.8318a   360.6110a   194.9241a
  cgtot      82.6260a   244.3119a   136.6818a   244.3119a    96.9161a
  cstot     170.8418a   259.8701a   228.0318a   259.8701a   174.4332a
  cbtot     282.5607a   393.6141a   393.7700a   393.6141a   307.5573a
  cgs        38.2658a   137.8153a    57.4452a   137.8153a    40.0139a
  cgd        26.8025a   105.0424a    57.4431a   105.0424a    39.3446a



 subckt    xi17.xi0.x  xi17.xi0.x  xi17.xi0.x  xi17.xi0.x  xi17.xi0.x
 element  61:m9       61:m1       61:m7       61:m6       61:m0      
 model     0:nmos      0:nmos      0:pmos      0:pmos      0:pmos    
 region        Cutoff      Cutoff      Linear      Linear      Linear
  id        340.5293p   340.5910p  -168.7075p  -168.7119p  -168.7075p
  ibs       -16.3361f   -55.3505f  -4.444e-28  -4.444e-28  -4.444e-28
  ibd       -55.3505f  -650.0119f     1.5721a     1.5721a     1.5721a
  vgs       -16.3298m   -55.3277m  -649.9891m  -650.0000m  -649.9891m
  vds        39.0088m   594.6598m    -1.5709u    -1.5709u    -1.5709u
  vbs       -16.3298m   -55.3386m     0.          0.          0.     
  vth       371.8658m   343.2144m  -310.7633m  -310.7633m  -310.7633m
  vdsat      40.2555m    40.0820m  -290.9271m  -290.9342m  -290.9271m
  vod      -388.1956m  -398.5420m  -339.2258m  -339.2367m  -339.2258m
  beta        2.8012m     2.9033m   368.4497u   368.4482u   368.4497u
  gam eff   441.0000m   441.0000m   394.0000m   394.0000m   394.0000m
  gm          8.7615n     8.8350n   400.5241p   400.5170p   400.5241p
  gds         3.9585n   664.6964p   107.3923u   107.3951u   107.3923u
  gmb         2.5984n     2.5627n   114.3081p   114.3074p   114.3081p
  cdtot     191.3668a   159.2288a   360.6121a   360.6131a   360.6121a
  cgtot      94.6269a    82.0857a   244.3119a   244.3125a   244.3119a
  cstot     173.0411a   169.7550a   259.8695a   259.8694a   259.8695a
  cbtot     304.8973a   282.0142a   393.6143a   393.6143a   393.6143a
  cgs        39.3450a    37.7254a   137.8149a   137.8151a   137.8149a
  cgd        37.7242a    26.8025a   105.0429a   105.0433a   105.0429a



 subckt    xi17.xi0.x  xi17.xi0.x  xi17.xi0.x  xi17.xi0.x  xi17.xi0.x
 element  62:m1       62:m2       63:m1       63:m2       64:m1      
 model     0:pmos      0:nmos      0:pmos      0:nmos      0:pmos    
 region        Cutoff      Linear      Cutoff      Linear      Cutoff
  id         -6.5912n     6.6884n    -6.5915n     6.6533n    -6.5912n
  ibs      -6.111e-25   1.260e-27  -6.111e-25   1.260e-27  -6.111e-25
  ibd       650.0554f   -10.8881a   650.0555f   -10.8309a   650.0554f
  vgs        -1.5709u   649.9984m    -3.2841u   649.9967m    -1.5709u
  vds      -649.9891m    10.8782u  -649.9892m    10.8211u  -649.9891m
  vbs         0.          0.          0.          0.          0.     
  vth      -255.4708m   370.5949m  -255.4708m   370.5949m  -255.4708m
  vdsat     -46.1529m   183.7266m   -46.1529m   183.7258m   -46.1529m
  vod       255.4692m   279.4035m   255.4675m   279.4018m   255.4692m
  beta        1.5587m     4.8290m     1.5587m     4.8290m     1.5587m
  gam eff   394.0000m   441.0000m   394.0000m   441.0000m   394.0000m
  gm        169.8726n    11.1755n   169.8800n    11.1169n   169.8726n
  gds        16.3012n   614.8281u    16.3019n   614.8265u    16.3012n
  gmb        38.8608n     3.7570n    38.8624n     3.7373n    38.8608n
  cdtot     681.9122a   452.9489a   681.9122a   452.9487a   681.9122a
  cgtot     457.0716a   312.1921a   457.0720a   312.1921a   457.0716a
  cstot     738.4025a   322.8695a   738.4029a   322.8695a   738.4025a
  cbtot       1.1291f   485.8936a     1.1291f   485.8936a     1.1291f
  cgs       224.2338a   173.7351a   224.2342a   173.7351a   224.2338a
  cgd       149.9440a   137.3858a   149.9440a   137.3857a   149.9440a



 subckt    xi17.xi0.x  xi17.xi0.x  xi17.xi0.x  xclk_gen.x  xclk_gen.x
 element  64:m2       65:m1       65:m2       70:m_0      70:m_1     
 model     0:nmos      0:pmos      0:nmos      0:nmos      0:pmos    
 region        Linear      Cutoff      Linear      Cutoff      Linear
  id          6.6884n    -6.5915n     6.6533n     3.9280n    -4.5683n
  ibs       1.260e-27  -6.111e-25   1.260e-27   6.099e-25  -1.558e-27
  ibd       -10.8881a   650.0555f   -10.8309a  -650.0091f    11.9184a
  vgs       649.9984m    -3.2841u   649.9967m     0.       -650.0000m
  vds        10.8782u  -649.9892m    10.8211u   649.9881m   -11.8902u
  vbs         0.          0.          0.          0.          0.     
  vth       370.5949m  -255.4708m   370.5949m   326.2528m  -310.7624m
  vdsat     183.7266m   -46.1529m   183.7258m    39.9742m  -291.1056m
  vod       279.4035m   255.4675m   279.4018m  -326.2528m  -339.2376m
  beta        4.8290m     1.5587m     4.8290m     4.9214m     1.3254m
  gam eff   441.0000m   394.0000m   441.0000m   441.0000m   394.0000m
  gm         11.1755n   169.8800n    11.1169n    99.6238n    10.7877n
  gds       614.8281u    16.3019n   614.8265u     7.4930n   384.2005u
  gmb         3.7570n    38.8624n     3.7373n    28.6988n     3.0785n
  cdtot     452.9489a   681.9122a   452.9487a   233.9958a     1.1564f
  cgtot     312.1921a   457.0720a   312.1921a   139.5719a   876.9168a
  cstot     322.8695a   738.4029a   322.8695a   255.0946a   799.1940a
  cbtot     485.8936a     1.1291f   485.8936a   406.8319a     1.1375f
  cgs       173.7351a   224.2342a   173.7351a    66.4244a   495.7611a
  cgd       137.3858a   149.9440a   137.3857a    44.4921a   377.8530a



 subckt    xclk_gen.x  xclk_gen.x  xclk_gen.x  xclk_gen.x  xclk_gen.x
 element  71:m_0      71:m_1      72:m_0      72:m_1      73:m_0     
 model     0:nmos      0:pmos      0:nmos      0:pmos      0:nmos    
 region        Linear      Cutoff      Cutoff      Linear      Linear
  id         23.8226n   -24.3070n    62.8656n   -73.1104n   394.4023n
  ibs       4.453e-27  -2.443e-24   9.758e-24  -2.493e-26   7.126e-26
  ibd       -43.7708a     2.6002p   -10.4001p   190.7443a  -724.6600a
  vgs       649.9881m   -11.8902u    10.9338u  -649.9891m   649.9881m
  vds        10.9338u  -649.9891m   649.9881m   -11.8933u    11.3136u
  vbs         0.          0.          0.          0.          0.     
  vth       370.5949m  -255.4708m   326.2528m  -310.7624m   370.5949m
  vdsat     183.5492m   -46.1529m    39.9742m  -291.0985m   183.5492m
  vod       279.3932m   255.4589m  -326.2419m  -339.2267m   279.3932m
  beta       17.0555m     5.7465m    78.7420m    21.2063m   272.8888m
  gam eff   441.0000m   394.0000m   441.0000m   394.0000m   441.0000m
  gm         39.9318n   626.4491n     1.5944u   172.6518n   661.1023n
  gds         2.1787m    60.1148n   119.9213n     6.1470m    34.8599m
  gmb        13.4250n   143.3082n   459.3044n    49.2699n   222.2620n
  cdtot       1.6252f     2.5285f     3.7439f    18.5017f    26.0024f
  cgtot       1.1030f     1.6854f     2.2332f    14.0306f    17.6477f
  cstot       1.1648f     2.7387f     4.0815f    12.7871f    18.6367f
  cbtot       1.7663f     4.1936f     6.5093f    18.2006f    28.2609f
  cgs       613.6172a   826.7214a     1.0628f     7.9322f     9.8179f
  cgd       485.2325a   552.8194a   711.8745a     6.0456f     7.7637f



 subckt    xclk_gen.x  xa0_gen.xg  xa0_gen.xg  xa0_gen.xg  xa0_gen.xg
 element  73:m_1      74:m_0      74:m_1      75:m_0      75:m_1     
 model     0:pmos      0:nmos      0:pmos      0:nmos      0:pmos    
 region        Cutoff      Cutoff      Linear      Linear      Cutoff
  id       -388.9117n     3.9280n    -4.5683n    23.8226n   -24.3070n
  ibs      -3.909e-23   6.099e-25  -1.558e-27   4.453e-27  -2.443e-24
  ibd        41.6032p  -650.0091f    11.9184a   -43.7708a     2.6002p
  vgs       -11.8933u     0.       -650.0000m   649.9881m   -11.8902u
  vds      -649.9887m   649.9881m   -11.8902u    10.9338u  -649.9891m
  vbs         0.          0.          0.          0.          0.     
  vth      -255.4709m   326.2528m  -310.7624m   370.5949m  -255.4708m
  vdsat     -46.1529m    39.9742m  -291.1056m   183.5492m   -46.1529m
  vod       255.4590m  -326.2528m  -339.2376m   279.3932m   255.4589m
  beta       91.9445m     4.9214m     1.3254m    17.0555m     5.7465m
  gam eff   394.0000m   441.0000m   394.0000m   441.0000m   394.0000m
  gm         10.0232u    99.6238n    10.7877n    39.9318n   626.4491n
  gds       961.8364n     7.4930n   384.2005u     2.1787m    60.1148n
  gmb         2.2929u    28.6988n     3.0785n    13.4250n   143.3082n
  cdtot      40.4558f   233.9958a     1.1564f     1.6252f     2.5285f
  cgtot      26.9662f   139.5719a   876.9168a     1.1030f     1.6854f
  cstot      43.8197f   255.0946a   799.1940a     1.1648f     2.7387f
  cbtot      67.0977f   406.8319a     1.1375f     1.7663f     4.1936f
  cgs        13.2275f    66.4244a   495.7611a   613.6172a   826.7214a
  cgd         8.8451f    44.4921a   377.8530a   485.2325a   552.8194a



 subckt    xa0_gen.xg  xa0_gen.xg  xa0_gen.xg  xa0_gen.xg  xa255_gen.
 element  76:m_0      76:m_1      77:m_0      77:m_1      78:m_0     
 model     0:nmos      0:pmos      0:nmos      0:pmos      0:nmos    
 region        Cutoff      Linear      Linear      Cutoff      Cutoff
  id         62.8656n   -73.1104n   394.4023n  -388.9117n     3.9280n
  ibs       9.758e-24  -2.493e-26   7.126e-26  -3.909e-23   6.099e-25
  ibd       -10.4001p   190.7443a  -724.6600a    41.6032p  -650.0091f
  vgs        10.9338u  -649.9891m   649.9881m   -11.8933u     0.     
  vds       649.9881m   -11.8933u    11.3136u  -649.9887m   649.9881m
  vbs         0.          0.          0.          0.          0.     
  vth       326.2528m  -310.7624m   370.5949m  -255.4709m   326.2528m
  vdsat      39.9742m  -291.0985m   183.5492m   -46.1529m    39.9742m
  vod      -326.2419m  -339.2267m   279.3932m   255.4590m  -326.2528m
  beta       78.7420m    21.2063m   272.8888m    91.9445m     4.9214m
  gam eff   441.0000m   394.0000m   441.0000m   394.0000m   441.0000m
  gm          1.5944u   172.6518n   661.1023n    10.0232u    99.6238n
  gds       119.9213n     6.1470m    34.8599m   961.8364n     7.4930n
  gmb       459.3044n    49.2699n   222.2620n     2.2929u    28.6988n
  cdtot       3.7439f    18.5017f    26.0024f    40.4558f   233.9958a
  cgtot       2.2332f    14.0306f    17.6477f    26.9662f   139.5719a
  cstot       4.0815f    12.7871f    18.6367f    43.8197f   255.0946a
  cbtot       6.5093f    18.2006f    28.2609f    67.0977f   406.8319a
  cgs         1.0628f     7.9322f     9.8179f    13.2275f    66.4244a
  cgd       711.8745a     6.0456f     7.7637f     8.8451f    44.4921a



 subckt    xa255_gen.  xa255_gen.  xa255_gen.  xa255_gen.  xa255_gen.
 element  78:m_1      79:m_0      79:m_1      80:m_0      80:m_1     
 model     0:pmos      0:nmos      0:pmos      0:nmos      0:pmos    
 region        Linear      Linear      Cutoff      Cutoff      Linear
  id         -4.5683n    23.8226n   -24.3070n    62.8656n   -73.1104n
  ibs      -1.558e-27   4.453e-27  -2.443e-24   9.758e-24  -2.493e-26
  ibd        11.9184a   -43.7708a     2.6002p   -10.4001p   190.7443a
  vgs      -650.0000m   649.9881m   -11.8902u    10.9338u  -649.9891m
  vds       -11.8902u    10.9338u  -649.9891m   649.9881m   -11.8933u
  vbs         0.          0.          0.          0.          0.     
  vth      -310.7624m   370.5949m  -255.4708m   326.2528m  -310.7624m
  vdsat    -291.1056m   183.5492m   -46.1529m    39.9742m  -291.0985m
  vod      -339.2376m   279.3932m   255.4589m  -326.2419m  -339.2267m
  beta        1.3254m    17.0555m     5.7465m    78.7420m    21.2063m
  gam eff   394.0000m   441.0000m   394.0000m   441.0000m   394.0000m
  gm         10.7877n    39.9318n   626.4491n     1.5944u   172.6518n
  gds       384.2005u     2.1787m    60.1148n   119.9213n     6.1470m
  gmb         3.0785n    13.4250n   143.3082n   459.3044n    49.2699n
  cdtot       1.1564f     1.6252f     2.5285f     3.7439f    18.5017f
  cgtot     876.9168a     1.1030f     1.6854f     2.2332f    14.0306f
  cstot     799.1940a     1.1648f     2.7387f     4.0815f    12.7871f
  cbtot       1.1375f     1.7663f     4.1936f     6.5093f    18.2006f
  cgs       495.7611a   613.6172a   826.7214a     1.0628f     7.9322f
  cgd       377.8530a   485.2325a   552.8194a   711.8745a     6.0456f



 subckt    xa255_gen.  xa255_gen.  xblpc_b_ge  xblpc_b_ge  xblpc_b_ge
 element  81:m_0      81:m_1      82:m_0      82:m_1      83:m_0     
 model     0:nmos      0:pmos      0:nmos      0:pmos      0:nmos    
 region        Linear      Cutoff      Cutoff      Linear      Linear
  id        394.4023n  -388.9117n     3.9280n    -4.5683n    23.8226n
  ibs       7.126e-26  -3.909e-23   6.099e-25  -1.558e-27   4.453e-27
  ibd      -724.6600a    41.6032p  -650.0091f    11.9184a   -43.7708a
  vgs       649.9881m   -11.8933u     0.       -650.0000m   649.9881m
  vds        11.3136u  -649.9887m   649.9881m   -11.8902u    10.9338u
  vbs         0.          0.          0.          0.          0.     
  vth       370.5949m  -255.4709m   326.2528m  -310.7624m   370.5949m
  vdsat     183.5492m   -46.1529m    39.9742m  -291.1056m   183.5492m
  vod       279.3932m   255.4590m  -326.2528m  -339.2376m   279.3932m
  beta      272.8888m    91.9445m     4.9214m     1.3254m    17.0555m
  gam eff   441.0000m   394.0000m   441.0000m   394.0000m   441.0000m
  gm        661.1023n    10.0232u    99.6238n    10.7877n    39.9318n
  gds        34.8599m   961.8364n     7.4930n   384.2005u     2.1787m
  gmb       222.2620n     2.2929u    28.6988n     3.0785n    13.4250n
  cdtot      26.0024f    40.4558f   233.9958a     1.1564f     1.6252f
  cgtot      17.6477f    26.9662f   139.5719a   876.9168a     1.1030f
  cstot      18.6367f    43.8197f   255.0946a   799.1940a     1.1648f
  cbtot      28.2609f    67.0977f   406.8319a     1.1375f     1.7663f
  cgs         9.8179f    13.2275f    66.4244a   495.7611a   613.6172a
  cgd         7.7637f     8.8451f    44.4921a   377.8530a   485.2325a



 subckt    xblpc_b_ge  xblpc_b_ge  xblpc_b_ge  xblpc_b_ge  xblpc_b_ge
 element  83:m_1      84:m_0      84:m_1      85:m_0      85:m_1     
 model     0:pmos      0:nmos      0:pmos      0:nmos      0:pmos    
 region        Cutoff      Cutoff      Linear      Linear      Cutoff
  id        -24.3070n    62.8656n   -73.1104n   394.4023n  -388.9117n
  ibs      -2.443e-24   9.758e-24  -2.493e-26   7.126e-26  -3.909e-23
  ibd         2.6002p   -10.4001p   190.7443a  -724.6600a    41.6032p
  vgs       -11.8902u    10.9338u  -649.9891m   649.9881m   -11.8933u
  vds      -649.9891m   649.9881m   -11.8933u    11.3136u  -649.9887m
  vbs         0.          0.          0.          0.          0.     
  vth      -255.4708m   326.2528m  -310.7624m   370.5949m  -255.4709m
  vdsat     -46.1529m    39.9742m  -291.0985m   183.5492m   -46.1529m
  vod       255.4589m  -326.2419m  -339.2267m   279.3932m   255.4590m
  beta        5.7465m    78.7420m    21.2063m   272.8888m    91.9445m
  gam eff   394.0000m   441.0000m   394.0000m   441.0000m   394.0000m
  gm        626.4491n     1.5944u   172.6518n   661.1023n    10.0232u
  gds        60.1148n   119.9213n     6.1470m    34.8599m   961.8364n
  gmb       143.3082n   459.3044n    49.2699n   222.2620n     2.2929u
  cdtot       2.5285f     3.7439f    18.5017f    26.0024f    40.4558f
  cgtot       1.6854f     2.2332f    14.0306f    17.6477f    26.9662f
  cstot       2.7387f     4.0815f    12.7871f    18.6367f    43.8197f
  cbtot       4.1936f     6.5093f    18.2006f    28.2609f    67.0977f
  cgs       826.7214a     1.0628f     7.9322f     9.8179f    13.2275f
  cgd       552.8194a   711.8745a     6.0456f     7.7637f     8.8451f



 ******  
 * file: task5rd.sp

  ******  transient analysis tnom=  25.000 temp=  27.000 *****
 td_ck2wlr= 349.0246p  targ= 943.6100p   trig= 594.5854p
 td_ck2wlf= 324.8925p  targ=   1.4206n   trig=   1.0957n
  **warning** (task5rd.sp:62) .MEASURE  td_wl2bl never reached the target value, Measurement failed!
 td_wl2bl= failed       targ= not found    trig=   2.9427n
 max_bit_b= 659.1047m    at=   2.9629n
             from=   0.         to=   4.5000n
 min_bit=-735.7198u    at=   1.4334n
             from=   0.         to=   4.5000n
 supply_voltage= 650.0000m  from=   0.          to=   4.5000n

          ***** job concluded
1****** HSPICE -- F-2011.09-SP2 32-BIT (Feb 27 2012) linux ******               
 ******  
 * file: task5rd.sp

  ******  job statistics summary tnom=  25.000 temp=  27.000 *****
  
  
 ******  Machine Information  ******
 CPU:
 model name	: Quad-Core AMD Opteron(tm) Processor 2384
 cpu MHz	: 800.000
  
 OS:
 Linux version 3.2.0-36-generic (buildd@allspice) (gcc version 4.6.3 (Ubuntu/Lin
 aro 4.6.3-1ubuntu5) ) #57-Ubuntu SMP Tue Jan 8 21:44:52 UTC 2013


  ******  HSPICE Threads Information  ******

  Command Line Threads Count :     1
  Available CPU Count        :     8
  Actual Threads Count       :     1


  ******  Circuit Statistics  ******
  # nodes       =    1000 # elements   =     291
  # resistors   =       1 # capacitors =      26 # inductors   =       0
  # mutual_inds =       0 # vccs       =       0 # vcvs        =       4
  # cccs        =       8 # ccvs       =       0 # volt_srcs   =      37
  # curr_srcs   =       0 # diodes     =       0 # bjts        =       0
  # jfets       =       0 # mosfets    =     215 # U elements  =       0
  # T elements  =       0 # W elements =       0 # B elements  =       0
  # S elements  =       0 # P elements =       0 # va device   =       0
  # vector_srcs =       0


  ******  Runtime Statistics (seconds)  ******

  analysis           time    # points   tot. iter  conv.iter
  op point           0.14           1         126
  transient          5.02        9001       14282        1915 rev=       286
  readin             0.02
  errchk             0.04
  setup              0.02
  output             0.00


           peak memory used         91.67 megabytes
           total cpu time            5.24 seconds
           total elapsed time        5.59 seconds
           job started at     08:18:37 03/07/2013
           job ended   at     08:18:43 03/07/2013


 lic: Release hspice token(s) 
