 ****** HSPICE -- F-2011.09-SP2 32-BIT (Feb 27 2012) linux ******               
  Copyright (C) 2011 Synopsys, Inc. All Rights Reserved.                        
  Unpublished-rights reserved under US copyright laws.
  This program is protected by law and is subject to the
  terms and conditions of the license agreement from Synopsys.
  Use of this program is your acceptance to be bound by the
  license agreement. HSPICE is the trademark of Synopsys, Inc.
  Input File: full.sp                                                           
  Command line options: -i full.sp -o full.lis
 lic:  
 lic: FLEXlm: v10.8 
 lic: USER:   ronaldv              HOSTNAME: corn18.stanford.edu 
 lic: HOSTID: 001b213a6905         PID:      16856 
 lic: Using FLEXlm license file: 
 lic: 27000@cadlic0.stanford.edu 
 lic: Checkout 1 hspice 
 lic: License/Maintenance for hspice will expire on 16-nov-2013/2012.06 
 lic: 1(in_use)/100(total) FLOATING license(s) on SERVER cadlic0.stanford.edu 
 lic:   
 Init: read install configuration file: /usr/class/ee/synopsys/hspice/F-2011.09-SP2/hspice/meta.cfg

 **warning**  runlvl smaller than 5, reset to 5  when accurate turned on
 scientific notation:
 a=10**-18  f=10**-15  p=10**-12  n=10**-9  u=10**-6
 m=10**-3   k=10**3    x=10**6    g=10**9 
  **warning** (schem.task1.ckt:221) Global net name, "vdd", in subckt pin list. The pin will be connected to the local net. Recommend to not use global net names in subckt pin lists.

 **warning**  runlvl smaller than 5, reset to 5  when accurate turned on
1****** HSPICE -- F-2011.09-SP2 32-BIT (Feb 27 2012) linux ******               
 ******  
 * file: sense_timing.sp

  ******  circuit name directory
 circuit number to circuit name directory
   number circuitname                     definition         multiplier
        0 main circuit
        1 xcbl.                           mc                 1.00 
        2 xi5.                            mc               254.00 
        3 xcbr.                           mc                 1.00 
        4 xi4.                            mc               254.00 
        5 xi3.                            mc                64.52k
        6 xi2.                            mc               254.00 
        7 xctr.                           mc                 1.00 
        8 xi1.                            mc               254.00 
        9 xctl.                           mc                 1.00 
       10 xwritel.                        write              1.00 
       11 xwritem.                        write            254.00 
       12 xwriter.                        write              1.00 
       13 xdecoder.                       decoder_schematic
                                                                 1.00 
       14 xreplica.                       replica            1.00 
       15 xtunable_load.                  tunable_side       1.00 
       16 xsense1.                        inv                1.00 
       17 xsense2.                        inv                1.00 
       18 xsense3.                        inv                1.00 
       19 xsamp.                          sense              1.00 
       20 xclk_gen.                       clk_gen            1.00 
       21 xa0_gen.                        a0_gen             1.00 
       22 xa255_gen.                      a255_gen           1.00 
       23 xblpc_b_gen.                    blpc_b_gen         1.00 
       24 xwritel.xu0.                    inv_pcell_13       1.00 
       25 xwritel.xu2.                    inv_pcell_14       1.00 
       26 xwritel.xu1.                    inv_pcell_14       1.00 
       27 xwritem.xu0.                    inv_pcell_13     254.00 
       28 xwritem.xu2.                    inv_pcell_14     254.00 
       29 xwritem.xu1.                    inv_pcell_14     254.00 
       30 xwriter.xu0.                    inv_pcell_13       1.00 
       31 xwriter.xu2.                    inv_pcell_14       1.00 
       32 xwriter.xu1.                    inv_pcell_14       1.00 
       33 xdecoder.xi5.                   predecode_24       1.00 
       34 xdecoder.xi1.                   decode_stage       1.00 
       35 xdecoder.xi4.                   predecode_416      1.00 
       36 xreplica.xwrite.                write              1.00 
       37 xreplica.xfirst_rbit.           mc                 1.00 
       38 xreplica.xi13.                  mc                77.00 
       39 xreplica.xlast_rbit.            mc                 1.00 
       40 xsamp.xu1.                      inv_pcell_0        1.00 
       41 xsamp.xu0.                      inv_pcell_0        1.00 
       42 xsamp.xu3.                      inv_pcell_1        1.00 
       43 xsamp.xu2.                      inv_pcell_1        1.00 
       44 xclk_gen.xgen.                  signal_gen         1.00 
       45 xa0_gen.xgen.                   signal_gen         1.00 
       46 xa255_gen.xgen.                 signal_gen         1.00 
       47 xblpc_b_gen.xgen.               signal_gen         1.00 
       48 xdecoder.xi5.xi36.              nand3              1.00 
       49 xdecoder.xi5.xi37.              nand3              1.00 
       50 xdecoder.xi5.xi38.              nand3              1.00 
       51 xdecoder.xi5.xi39.              nand3              1.00 
       52 xdecoder.xi5.xu3.               inv_pcell_01       1.00 
       53 xdecoder.xi5.xu2.               inv_pcell_01       1.00 
       54 xdecoder.xi5.xu1.               inv_pcell_01       1.00 
       55 xdecoder.xi5.xu0.               inv_pcell_01       1.00 
       56 xdecoder.xi1.xu7.               inv_pcell_2        1.00 
       57 xdecoder.xi1.xu5.               inv_pcell_2        1.00 
       58 xdecoder.xi1.xu1.               nand_pcell_3       1.00 
       59 xdecoder.xi1.xu3.               nand_pcell_3       1.00 
       60 xdecoder.xi1.xu2.               nand_pcell_4       1.00 
       61 xdecoder.xi1.xu0.               nand_pcell_4       1.00 
       62 xdecoder.xi1.xu6.               inv_pcell_5        1.00 
       63 xdecoder.xi1.xu8.               inv_pcell_5        1.00 
       64 xdecoder.xi4.xi17.              nand_pcell_6       1.00 
       65 xdecoder.xi4.xi15.              nand_pcell_6       1.00 
       66 xdecoder.xi4.xu2.               inv_pcell_78       1.00 
       67 xdecoder.xi4.xu0.               inv_pcell_78       1.00 
       68 xdecoder.xi4.xi16.              nand_pcell_11      1.00 
       69 xdecoder.xi4.xi18.              nand_pcell_11      1.00 
       70 xdecoder.xi4.xu1.               inv_pcell_1415     1.00 
       71 xdecoder.xi4.xu3.               inv_pcell_1415     1.00 
       72 xreplica.xwrite.xu0.            inv_pcell_13       1.00 
       73 xreplica.xwrite.xu2.            inv_pcell_14       1.00 
       74 xreplica.xwrite.xu1.            inv_pcell_14       1.00 
       75 xclk_gen.xgen.x_0.              inv_chain_stimulus
                                                                 1.00 
       76 xa0_gen.xgen.x_0.               inv_chain_stimulus
                                                                 1.00 
       77 xa255_gen.xgen.x_0.             inv_chain_stimulus
                                                                 1.00 
       78 xblpc_b_gen.xgen.x_0.           inv_chain_stimulus
                                                                 1.00 
       79 xclk_gen.xgen.x_0.x_0.          inv_stimulus       1.00 
       80 xclk_gen.xgen.x_0.x_1.          inv_stimulus       4.00 
       81 xclk_gen.xgen.x_0.x_2.          inv_stimulus      16.00 
       82 xclk_gen.xgen.x_0.x_3.          inv_stimulus      64.00 
       83 xa0_gen.xgen.x_0.x_0.           inv_stimulus       1.00 
       84 xa0_gen.xgen.x_0.x_1.           inv_stimulus       4.00 
       85 xa0_gen.xgen.x_0.x_2.           inv_stimulus      16.00 
       86 xa0_gen.xgen.x_0.x_3.           inv_stimulus      64.00 
       87 xa255_gen.xgen.x_0.x_0.         inv_stimulus       1.00 
       88 xa255_gen.xgen.x_0.x_1.         inv_stimulus       4.00 
       89 xa255_gen.xgen.x_0.x_2.         inv_stimulus      16.00 
       90 xa255_gen.xgen.x_0.x_3.         inv_stimulus      64.00 
       91 xblpc_b_gen.xgen.x_0.x_0.       inv_stimulus       1.00 
       92 xblpc_b_gen.xgen.x_0.x_1.       inv_stimulus       4.00 
       93 xblpc_b_gen.xgen.x_0.x_2.       inv_stimulus      16.00 
       94 xblpc_b_gen.xgen.x_0.x_3.       inv_stimulus      64.00 


 circuit parameter definitions
  parameter          =  value 

     0:supply                                                  =   1.0000       
     0:tcyc                                                    =   1.0000n      
     0:trf                                                     =  50.0000p      
     0:vsense                                                  = 150.0000m      
     0:td                                                      = 180.0000p      
     0:dc1                                                     =   1.0000       
     0:dc2                                                     =   1.0000       
     0:dc3                                                     =   1.0000       
     0:dc4                                                     =   1.0000       
     0:vsw                                                     = 510.2000m      
     0:s1_wn                                                   =   9.0000       
     0:s1_wp                                                   =   3.0000       
     0:s2_wn                                                   =  12.0000       
     0:s2_wp                                                   =  69.0000       
     0:s3_wn                                                   =  67.0000       
     0:s3_wp                                                   =  24.0000       
     0:s4_wn                                                   = 107.0000       
     0:s4_wp                                                   = 641.0000       
     0:s5_wn                                                   = 130.0000       
     0:s5_wp                                                   =  46.0000       
     0:s6_wn                                                   = 172.0000       
     0:s6_wp                                                   =   1.0290k      
     0:td_ck2sae                                               =   0.           
     0:td_rbl2sae                                              =   0.           
     0:td_ck2rbl                                               =   0.           
     0:td_ck2wlr                                               =   0.           
     0:td_ck2wlf                                               =   0.           
     0:td_wl2bl0                                               =   0.           
     0:td_ck2bl0                                               =   0.           
     0:td_wl2bl63                                              =   0.           
     0:td_ck2bl63                                              =   0.           
     0:wl_pw                                                   =   0.           
     0:idsat                                                   =   0.           
     0:mem_core_power                                          =   0.           
     0:blpc_b_power                                            =   0.           
    16:nm                                                      =   1.0000       
    16:pm                                                      =   3.0000       
    17:nm                                                      =  20.0000       
    17:pm                                                      =  10.0000       
    18:nm                                                      =  78.0000       
    18:pm                                                      = 470.0000       
    48:nm                                                      =   1.0000       
    48:pm                                                      =   1.0000       
    48:nl                                                      =   2.0000       
    48:nw                                                      =   9.0000       
    48:pl                                                      =   2.0000       
    48:pw                                                      =   3.0000       
    79:wp                                                      =  24.0000       
    79:lp                                                      =   2.0000       
    79:wn                                                      =   8.0000       
    79:ln                                                      =   2.0000       
    80:wp                                                      =  24.0000       
    80:lp                                                      =   2.0000       
    80:wn                                                      =   8.0000       
    80:ln                                                      =   2.0000       
    81:wp                                                      =  24.0000       
    81:lp                                                      =   2.0000       
    81:wn                                                      =   8.0000       
    81:ln                                                      =   2.0000       
    82:wp                                                      =  24.0000       
    82:lp                                                      =   2.0000       
    82:wn                                                      =   8.0000       
    82:ln                                                      =   2.0000       
    83:wp                                                      =  24.0000       
    83:lp                                                      =   2.0000       
    83:wn                                                      =   8.0000       
    83:ln                                                      =   2.0000       
    84:wp                                                      =  24.0000       
    84:lp                                                      =   2.0000       
    84:wn                                                      =   8.0000       
    84:ln                                                      =   2.0000       
    85:wp                                                      =  24.0000       
    85:lp                                                      =   2.0000       
    85:wn                                                      =   8.0000       
    85:ln                                                      =   2.0000       
    86:wp                                                      =  24.0000       
    86:lp                                                      =   2.0000       
    86:wn                                                      =   8.0000       
    86:ln                                                      =   2.0000       
    87:wp                                                      =  24.0000       
    87:lp                                                      =   2.0000       
    87:wn                                                      =   8.0000       
    87:ln                                                      =   2.0000       
    88:wp                                                      =  24.0000       
    88:lp                                                      =   2.0000       
    88:wn                                                      =   8.0000       
    88:ln                                                      =   2.0000       
    89:wp                                                      =  24.0000       
    89:lp                                                      =   2.0000       
    89:wn                                                      =   8.0000       
    89:ln                                                      =   2.0000       
    90:wp                                                      =  24.0000       
    90:lp                                                      =   2.0000       
    90:wn                                                      =   8.0000       
    90:ln                                                      =   2.0000       
    91:wp                                                      =  24.0000       
    91:lp                                                      =   2.0000       
    91:wn                                                      =   8.0000       
    91:ln                                                      =   2.0000       
    92:wp                                                      =  24.0000       
    92:lp                                                      =   2.0000       
    92:wn                                                      =   8.0000       
    92:ln                                                      =   2.0000       
    93:wp                                                      =  24.0000       
    93:lp                                                      =   2.0000       
    93:wn                                                      =   8.0000       
    93:ln                                                      =   2.0000       
    94:wp                                                      =  24.0000       
    94:lp                                                      =   2.0000       
    94:wn                                                      =   8.0000       
    94:ln                                                      =   2.0000       




 constants  - tnom         kt           vt           gapsi        ni
            298.15000    4.1163e-21    25.69184m     1.11562    1.2565e+16 
  **warning** (/usr/class/ee313/ee313_spice_header.h:18) Both nodes of element vgnd are connected together; Line ignored.
  **info** (/usr/class/ee313/project/stimulus.sp:38) DC voltage reset to initial transient source value              in source       20:vsrc                new dc=  0.0000D+00
 ** warning** associated with encrypted blocks were suppressed

1****** HSPICE -- F-2011.09-SP2 32-BIT (Feb 27 2012) linux ******               
 ******  
 * file: sense_timing.sp

  ******  circuit element summary tnom=  25.000 temp=  25.000 *****


 **** capacitors
  
  
                                                              
 element name        1:c2       1:c1       1:c0       2:c2    
 node1               0:bl0      0:bl_b0    0:wl255    0:net57 
 node2               0:0        0:0        0:0        0:0     
 model                                                        
 cap eff            88.0000a   88.0000a  140.0000a   22.3520f 
 tc1                 0.         0.         0.         0.      
 tc2                 0.         0.         0.         0.      
 scale               1.0000     1.0000     1.0000     1.0000  
 ic                  0.         0.         0.         0.      
 m                   1.0000     1.0000     1.0000   254.0000  
 w                   0.         0.         0.         0.      
 l                   0.         0.         0.         0.      
 temp               25.0000    25.0000    25.0000    25.0000  
  
  
                                                               
 element name        2:c1       2:c0       3:c2       3:c1     
 node1               0:net56    0:wl255    0:bl63     0:bl_b63 
 node2               0:0        0:0        0:0        0:0      
 model                                                         
 cap eff            22.3520f   35.5600f   88.0000a   88.0000a  
 tc1                 0.         0.         0.         0.       
 tc2                 0.         0.         0.         0.       
 scale               1.0000     1.0000     1.0000     1.0000   
 ic                  0.         0.         0.         0.       
 m                 254.0000   254.0000     1.0000     1.0000   
 w                   0.         0.         0.         0.       
 l                   0.         0.         0.         0.       
 temp               25.0000    25.0000    25.0000    25.0000   
  
  
                                                               
 element name        3:c0       4:c2       4:c1        5:c2    
 node1               0:wl255    0:bl63     0:bl_b63    0:net57 
 node2               0:0        0:0        0:0         0:0     
 model                                                         
 cap eff           140.0000a   22.3520f   22.3520f     5.6774p 
 tc1                 0.         0.         0.          0.      
 tc2                 0.         0.         0.          0.      
 scale               1.0000     1.0000     1.0000      1.0000  
 ic                  0.         0.         0.          0.      
 m                   1.0000   254.0000   254.0000     64.5160k 
 w                   0.         0.         0.          0.      
 l                   0.         0.         0.          0.      
 temp               25.0000    25.0000    25.0000     25.0000  
  
  
                                                              
 element name        5:c1       6:c2       6:c1       7:c2    
 node1               0:net56    0:bl0      0:bl_b0    0:bl63  
 node2               0:0        0:0        0:0        0:0     
 model                                                        
 cap eff             5.6774p   22.3520f   22.3520f   88.0000a 
 tc1                 0.         0.         0.         0.      
 tc2                 0.         0.         0.         0.      
 scale               1.0000     1.0000     1.0000     1.0000  
 ic                  0.         0.         0.         0.      
 m                  64.5160k  254.0000   254.0000     1.0000  
 w                   0.         0.         0.         0.      
 l                   0.         0.         0.         0.      
 temp               25.0000    25.0000    25.0000    25.0000  
  
  
                                                               
 element name        7:c1        7:c0       8:c2       8:c1    
 node1               0:bl_b63    0:wl0      0:net57    0:net56 
 node2               0:0         0:0        0:0        0:0     
 model                                                         
 cap eff            88.0000a   140.0000a   22.3520f   22.3520f 
 tc1                 0.          0.         0.         0.      
 tc2                 0.          0.         0.         0.      
 scale               1.0000      1.0000     1.0000     1.0000  
 ic                  0.          0.         0.         0.      
 m                   1.0000      1.0000   254.0000   254.0000  
 w                   0.          0.         0.         0.      
 l                   0.          0.         0.         0.      
 temp               25.0000     25.0000    25.0000    25.0000  
  
  
                                                              
 element name        8:c0       9:c2       9:c1       9:c0    
 node1               0:wl0      0:bl0      0:bl_b0    0:wl0   
 node2               0:0        0:0        0:0        0:0     
 model                                                        
 cap eff            35.5600f   88.0000a   88.0000a  140.0000a 
 tc1                 0.         0.         0.         0.      
 tc2                 0.         0.         0.         0.      
 scale               1.0000     1.0000     1.0000     1.0000  
 ic                  0.         0.         0.         0.      
 m                 254.0000     1.0000     1.0000     1.0000  
 w                   0.         0.         0.         0.      
 l                   0.         0.         0.         0.      
 temp               25.0000    25.0000    25.0000    25.0000  
  
  
                                                                        
 element name       13:c_sideloa   13:c_sideloa   15:cd1      15:cd2    
 node1              13:net17       13:net14       15:in_sw1   15:in_sw2 
 node2               0:0            0:0            0:0         0:0      
 model                                                                  
 cap eff            22.5300f       22.5300f        3.2700f     3.2700f  
 tc1                 0.             0.             0.          0.       
 tc2                 0.             0.             0.          0.       
 scale               1.0000         1.0000         1.0000      1.0000   
 ic                  0.             0.             0.          0.       
 m                   1.0000         1.0000         1.0000      1.0000   
 w                   0.             0.             0.          0.       
 l                   0.             0.             0.          0.       
 temp               25.0000        25.0000        25.0000     25.0000   
  
  
                                                                
 element name       15:cd3      15:cd4      19:c1      19:c0    
 node1              15:in_sw3   15:in_sw4    0:ck       0:sae   
 node2               0:0         0:0         0:0        0:0     
 model                                                          
 cap eff             3.2700f     3.2700f   560.0000a  560.0000a 
 tc1                 0.          0.          0.         0.      
 tc2                 0.          0.          0.         0.      
 scale               1.0000      1.0000      1.0000     1.0000  
 ic                  0.          0.          0.         0.      
 m                   1.0000      1.0000      1.0000     1.0000  
 w                   0.          0.          0.         0.      
 l                   0.          0.          0.         0.      
 temp               25.0000     25.0000     25.0000    25.0000  
  
  
                                                              
 element name       37:c2      37:c1      37:c0      38:c2    
 node1               0:rbl      0:rbl_b    0:ck       0:rbl   
 node2               0:0        0:0        0:0        0:0     
 model                                                        
 cap eff            88.0000a   88.0000a  140.0000a    6.7760f 
 tc1                 0.         0.         0.         0.      
 tc2                 0.         0.         0.         0.      
 scale               1.0000     1.0000     1.0000     1.0000  
 ic                  0.         0.         0.         0.      
 m                   1.0000     1.0000     1.0000    77.0000  
 w                   0.         0.         0.         0.      
 l                   0.         0.         0.         0.      
 temp               25.0000    25.0000    25.0000    25.0000  
  
  
                                                   
 element name       38:c1      39:c2      39:c1    
 node1               0:rbl_b    0:rbl      0:rbl_b 
 node2               0:0        0:0        0:0     
 model                                             
 cap eff             6.7760f   88.0000a   88.0000a 
 tc1                 0.         0.         0.      
 tc2                 0.         0.         0.      
 scale               1.0000     1.0000     1.0000  
 ic                  0.         0.         0.      
 m                  77.0000     1.0000     1.0000  
 w                   0.         0.         0.      
 l                   0.         0.         0.      
 temp               25.0000    25.0000    25.0000  


 **** voltage-controlled voltage sources
      name        +             -          dimension  function  scale
       44:e_0            44:net_3           0:0              1      poly       1.    
       45:e_0            45:net_3           0:0              1      poly       1.    
       46:e_0            46:net_3           0:0              1      poly       1.    
       47:e_0            47:net_3           0:0              1      poly       1.    


 **** current-controlled current sources
      name        +             -          dimension  function  multiplier
       44:f_0            44:net_4           0:0              1      poly       1.    
       44:f_1            44:net_4           0:0              1      poly       1.    
       45:f_0            45:net_4           0:0              1      poly       1.    
       45:f_1            45:net_4           0:0              1      poly       1.    
       46:f_0            46:net_4           0:0              1      poly       1.    
       46:f_1            46:net_4           0:0              1      poly       1.    
       47:f_0            47:net_4           0:0              1      poly       1.    
       47:f_1            47:net_4           0:0              1      poly       1.    


 **** independent sources

     name         node1        node2      dc volt    ac mag    ac phase    type
  v_supply  vdd               0                    1.0000     0.         0.      dc   
  v_supply1  vdd!              0                    1.0000     0.         0.      dc   
  vdc1  d1en_b            0                    1.0000     0.         0.      dc   
  vdc2  d2en_b            0                    1.0000     0.         0.      dc   
  vdc3  d3en_b            0                    1.0000     0.         0.      dc   
  vdc4  d4en_b            0                    1.0000     0.         0.      dc   
 xclk_gen.vsrc xclk_gen.src               0                    0.         0.         0.      pulse
             initial value     0.     
             pulsed value.     1.0000 
             delay time...   500.0000p
             risetime.....    50.0000p
             falltime.....    50.0000p
             width........   450.0000p
             period.......     1.0000n

 xa0_gen.vsrc xa0_gen.src               0                    0.         0.         0.      pulse
             initial value     0.     
             pulsed value.     1.0000 
             delay time...   375.0000p
             risetime.....    50.0000p
             falltime.....    50.0000p
             width........   950.0000p
             period.......     2.0000n

 xa255_gen.vsrc xa255_gen.src               0                    0.         0.         0.      pulse
             initial value     0.     
             pulsed value.     1.0000 
             delay time...     1.3750n
             risetime.....    50.0000p
             falltime.....    50.0000p
             width........   950.0000p
             period.......     2.0000n

 xblpc_b_gen.vsrc xblpc_b_gen.src               0                    0.         0.         0.      pulse
             initial value     0.     
             pulsed value.     1.0000 
             delay time...   630.0000p
             risetime.....    50.0000p
             falltime.....    50.0000p
             width........   550.0000p
             period.......     1.0000n

 xclk_gen.xgen.v_monitor xclk_gen.xgen.net_4             0                    1.0000     0.         0.      dc   
 xclk_gen.xgen.v_sense xclk_gen.xgen.net_3             ck                   0.         0.         0.      dc   
 xa0_gen.xgen.v_monitor xa0_gen.xgen.net_4             0                    1.0000     0.         0.      dc   
 xa0_gen.xgen.v_sense xa0_gen.xgen.net_3             a0                   0.         0.         0.      dc   
 xa255_gen.xgen.v_monitor xa255_gen.xgen.net_4             0                    1.0000     0.         0.      dc   
 xa255_gen.xgen.v_sense xa255_gen.xgen.net_3             a255                 0.         0.         0.      dc   
 xblpc_b_gen.xgen.v_monitor xblpc_b_gen.xgen.net_4             0                    1.0000     0.         0.      dc   
 xblpc_b_gen.xgen.v_sense xblpc_b_gen.xgen.net_3             blpc_b               0.         0.         0.      dc   
 xclk_gen.xgen.x_0.x_0.vstimulus_supply xclk_gen.xgen.x_0.x_0.vdd_stimulus      0                    1.0000     0.         0.      dc   
 xclk_gen.xgen.x_0.x_1.vstimulus_supply xclk_gen.xgen.x_0.x_1.vdd_stimulus      0                    1.0000     0.         0.      dc   
 xclk_gen.xgen.x_0.x_2.vstimulus_supply xclk_gen.xgen.x_0.x_2.vdd_stimulus      0                    1.0000     0.         0.      dc   
 xclk_gen.xgen.x_0.x_3.vstimulus_supply xclk_gen.xgen.x_0.x_3.vdd_stimulus      0                    1.0000     0.         0.      dc   
 xa0_gen.xgen.x_0.x_0.vstimulus_supply xa0_gen.xgen.x_0.x_0.vdd_stimulus      0                    1.0000     0.         0.      dc   
 xa0_gen.xgen.x_0.x_1.vstimulus_supply xa0_gen.xgen.x_0.x_1.vdd_stimulus      0                    1.0000     0.         0.      dc   
 xa0_gen.xgen.x_0.x_2.vstimulus_supply xa0_gen.xgen.x_0.x_2.vdd_stimulus      0                    1.0000     0.         0.      dc   
 xa0_gen.xgen.x_0.x_3.vstimulus_supply xa0_gen.xgen.x_0.x_3.vdd_stimulus      0                    1.0000     0.         0.      dc   
 xa255_gen.xgen.x_0.x_0.vstimulus_supply xa255_gen.xgen.x_0.x_0.vdd_stimulus      0                    1.0000     0.         0.      dc   
 xa255_gen.xgen.x_0.x_1.vstimulus_supply xa255_gen.xgen.x_0.x_1.vdd_stimulus      0                    1.0000     0.         0.      dc   
 xa255_gen.xgen.x_0.x_2.vstimulus_supply xa255_gen.xgen.x_0.x_2.vdd_stimulus      0                    1.0000     0.         0.      dc   
 xa255_gen.xgen.x_0.x_3.vstimulus_supply xa255_gen.xgen.x_0.x_3.vdd_stimulus      0                    1.0000     0.         0.      dc   
 xblpc_b_gen.xgen.x_0.x_0.vstimulus_supply xblpc_b_gen.xgen.x_0.x_0.vdd_stimulus      0                    1.0000     0.         0.      dc   
 xblpc_b_gen.xgen.x_0.x_1.vstimulus_supply xblpc_b_gen.xgen.x_0.x_1.vdd_stimulus      0                    1.0000     0.         0.      dc   
 xblpc_b_gen.xgen.x_0.x_2.vstimulus_supply xblpc_b_gen.xgen.x_0.x_2.vdd_stimulus      0                    1.0000     0.         0.      dc   
 xblpc_b_gen.xgen.x_0.x_3.vstimulus_supply xblpc_b_gen.xgen.x_0.x_3.vdd_stimulus      0                    1.0000     0.         0.      dc   


 **** mosfets


 **** BSIM4 Model (Level 54)
  
  
                                                              
 element name        1:m5       1:m4       1:m1       1:m0    
 drain               1:bit      1:bit_b    0:bl_b0    0:bl0   
 gate                1:bit_b    1:bit      0:wl255    0:wl255 
 source              0:0        0:0        1:bit_b    1:bit   
 bulk                0:0        0:0        0:0        0:0     
 model               0:nmos     0:nmos     0:nmos     0:nmos  
 w eff             122.0000n  122.0000n   78.0000n   78.0000n 
 l eff              29.0000n   29.0000n   29.0000n   29.0000n 
 rd eff              0.         0.         0.         0.      
 rs eff              0.         0.         0.         0.      
 cdsat              11.4887a   11.4887a    7.8700a    7.8700a 
 cssat              11.4887a   11.4887a    7.8700a    7.8700a 
 capbd             178.5462a  178.5462a  133.6681a  133.6681a 
 capbs             152.1990a  152.1990a  116.1033a  116.1033a 
 temp               25.0000    25.0000    25.0000    25.0000  
 aic                                                          
 nf                  1.0000     1.0000     1.0000     1.0000  
 min                 0.         0.         0.         0.      
 rbdb               15.0000    15.0000    15.0000    15.0000  
 rbsb               15.0000    15.0000    15.0000    15.0000  
 rbpb                5.0000     5.0000     5.0000     5.0000  
 rbps               15.0000    15.0000    15.0000    15.0000  
 rbpd               15.0000    15.0000    15.0000    15.0000  
 trnqsmod            0.         0.         0.         0.      
 acnqsmod            0.         0.         0.         0.      
 rbodymod            1.0000     1.0000     1.0000     1.0000  
 rgatemod            1.0000     1.0000     1.0000     1.0000  
 geomod              0.         0.         0.         0.      
 rgeomod             0.         0.         0.         0.      
 delvto              0.         0.         0.         0.      
 mulu0               1.0000     1.0000     1.0000     1.0000  
 delk1               0.         0.         0.         0.      
 delnfct             0.         0.         0.         0.      
 deltox              0.         0.         0.         0.      
 sa                  0.         0.         0.         0.      
 sb                  0.         0.         0.         0.      
 sd                  0.         0.         0.         0.      
 saeff               0.         0.         0.         0.      
 sbeff               0.         0.         0.         0.      
  
  
                                                              
 element name        1:m2       1:m3       2:m5       2:m4    
 drain               1:bit_b    1:bit      2:bit      2:bit_b 
 gate                1:bit      1:bit_b    2:bit_b    2:bit   
 source              0:vdd      0:vdd      0:0        0:0     
 bulk                0:vdd!     0:vdd!     0:0        0:0     
 model               0:pmos     0:pmos     0:nmos     0:nmos  
 w eff              78.0000n   78.0000n   30.9880u   30.9880u 
 l eff              29.0000n   29.0000n   29.0000n   29.0000n 
 rd eff              0.         0.         0.         0.      
 rs eff              0.         0.         0.         0.      
 cdsat               7.8700a    7.8700a    2.9181f    2.9181f 
 cssat               7.8700a    7.8700a    2.9181f    2.9181f 
 capbd             133.6681a  133.6681a  178.5462a  178.5462a 
 capbs             116.1033a  116.1033a  152.1990a  152.1990a 
 temp               25.0000    25.0000    25.0000    25.0000  
 aic                                                          
 nf                  1.0000     1.0000     1.0000     1.0000  
 min                 0.         0.         0.         0.      
 rbdb               15.0000    15.0000    15.0000    15.0000  
 rbsb               15.0000    15.0000    15.0000    15.0000  
 rbpb                5.0000     5.0000     5.0000     5.0000  
 rbps               15.0000    15.0000    15.0000    15.0000  
 rbpd               15.0000    15.0000    15.0000    15.0000  
 trnqsmod            0.         0.         0.         0.      
 acnqsmod            0.         0.         0.         0.      
 rbodymod            1.0000     1.0000     1.0000     1.0000  
 rgatemod            1.0000     1.0000     1.0000     1.0000  
 geomod              0.         0.         0.         0.      
 rgeomod             0.         0.         0.         0.      
 delvto              0.         0.         0.         0.      
 mulu0               1.0000     1.0000     1.0000     1.0000  
 delk1               0.         0.         0.         0.      
 delnfct             0.         0.         0.         0.      
 deltox              0.         0.         0.         0.      
 sa                  0.         0.         0.         0.      
 sb                  0.         0.         0.         0.      
 sd                  0.         0.         0.         0.      
 saeff               0.         0.         0.         0.      
 sbeff               0.         0.         0.         0.      
  
  
                                                              
 element name        2:m1       2:m0       2:m2       2:m3    
 drain               0:net56    0:net57    2:bit_b    2:bit   
 gate                0:wl255    0:wl255    2:bit      2:bit_b 
 source              2:bit_b    2:bit      0:vdd      0:vdd   
 bulk                0:0        0:0        0:vdd!     0:vdd!  
 model               0:nmos     0:nmos     0:pmos     0:pmos  
 w eff              19.8120u   19.8120u   19.8120u   19.8120u 
 l eff              29.0000n   29.0000n   29.0000n   29.0000n 
 rd eff              0.         0.         0.         0.      
 rs eff              0.         0.         0.         0.      
 cdsat               1.9990f    1.9990f    1.9990f    1.9990f 
 cssat               1.9990f    1.9990f    1.9990f    1.9990f 
 capbd             133.6681a  133.6681a  133.6681a  133.6681a 
 capbs             116.1033a  116.1033a  116.1033a  116.1033a 
 temp               25.0000    25.0000    25.0000    25.0000  
 aic                                                          
 nf                  1.0000     1.0000     1.0000     1.0000  
 min                 0.         0.         0.         0.      
 rbdb               15.0000    15.0000    15.0000    15.0000  
 rbsb               15.0000    15.0000    15.0000    15.0000  
 rbpb                5.0000     5.0000     5.0000     5.0000  
 rbps               15.0000    15.0000    15.0000    15.0000  
 rbpd               15.0000    15.0000    15.0000    15.0000  
 trnqsmod            0.         0.         0.         0.      
 acnqsmod            0.         0.         0.         0.      
 rbodymod            1.0000     1.0000     1.0000     1.0000  
 rgatemod            1.0000     1.0000     1.0000     1.0000  
 geomod              0.         0.         0.         0.      
 rgeomod             0.         0.         0.         0.      
 delvto              0.         0.         0.         0.      
 mulu0               1.0000     1.0000     1.0000     1.0000  
 delk1               0.         0.         0.         0.      
 delnfct             0.         0.         0.         0.      
 deltox              0.         0.         0.         0.      
 sa                  0.         0.         0.         0.      
 sb                  0.         0.         0.         0.      
 sd                  0.         0.         0.         0.      
 saeff               0.         0.         0.         0.      
 sbeff               0.         0.         0.         0.      
  
  
                                                               
 element name        3:m5       3:m4       3:m1        3:m0    
 drain               3:bit      3:bit_b    0:bl_b63    0:bl63  
 gate                3:bit_b    3:bit      0:wl255     0:wl255 
 source              0:0        0:0        3:bit_b     3:bit   
 bulk                0:0        0:0        0:0         0:0     
 model               0:nmos     0:nmos     0:nmos      0:nmos  
 w eff             122.0000n  122.0000n   78.0000n    78.0000n 
 l eff              29.0000n   29.0000n   29.0000n    29.0000n 
 rd eff              0.         0.         0.          0.      
 rs eff              0.         0.         0.          0.      
 cdsat              11.4887a   11.4887a    7.8700a     7.8700a 
 cssat              11.4887a   11.4887a    7.8700a     7.8700a 
 capbd             178.5462a  178.5462a  133.6681a   133.6681a 
 capbs             152.1990a  152.1990a  116.1033a   116.1033a 
 temp               25.0000    25.0000    25.0000     25.0000  
 aic                                                           
 nf                  1.0000     1.0000     1.0000      1.0000  
 min                 0.         0.         0.          0.      
 rbdb               15.0000    15.0000    15.0000     15.0000  
 rbsb               15.0000    15.0000    15.0000     15.0000  
 rbpb                5.0000     5.0000     5.0000      5.0000  
 rbps               15.0000    15.0000    15.0000     15.0000  
 rbpd               15.0000    15.0000    15.0000     15.0000  
 trnqsmod            0.         0.         0.          0.      
 acnqsmod            0.         0.         0.          0.      
 rbodymod            1.0000     1.0000     1.0000      1.0000  
 rgatemod            1.0000     1.0000     1.0000      1.0000  
 geomod              0.         0.         0.          0.      
 rgeomod             0.         0.         0.          0.      
 delvto              0.         0.         0.          0.      
 mulu0               1.0000     1.0000     1.0000      1.0000  
 delk1               0.         0.         0.          0.      
 delnfct             0.         0.         0.          0.      
 deltox              0.         0.         0.          0.      
 sa                  0.         0.         0.          0.      
 sb                  0.         0.         0.          0.      
 sd                  0.         0.         0.          0.      
 saeff               0.         0.         0.          0.      
 sbeff               0.         0.         0.          0.      
  
  
                                                              
 element name        3:m2       3:m3       4:m5       4:m4    
 drain               3:bit_b    3:bit      4:bit      4:bit_b 
 gate                3:bit      3:bit_b    4:bit_b    4:bit   
 source              0:vdd      0:vdd      0:0        0:0     
 bulk                0:vdd!     0:vdd!     0:0        0:0     
 model               0:pmos     0:pmos     0:nmos     0:nmos  
 w eff              78.0000n   78.0000n   30.9880u   30.9880u 
 l eff              29.0000n   29.0000n   29.0000n   29.0000n 
 rd eff              0.         0.         0.         0.      
 rs eff              0.         0.         0.         0.      
 cdsat               7.8700a    7.8700a    2.9181f    2.9181f 
 cssat               7.8700a    7.8700a    2.9181f    2.9181f 
 capbd             133.6681a  133.6681a  178.5462a  178.5462a 
 capbs             116.1033a  116.1033a  152.1990a  152.1990a 
 temp               25.0000    25.0000    25.0000    25.0000  
 aic                                                          
 nf                  1.0000     1.0000     1.0000     1.0000  
 min                 0.         0.         0.         0.      
 rbdb               15.0000    15.0000    15.0000    15.0000  
 rbsb               15.0000    15.0000    15.0000    15.0000  
 rbpb                5.0000     5.0000     5.0000     5.0000  
 rbps               15.0000    15.0000    15.0000    15.0000  
 rbpd               15.0000    15.0000    15.0000    15.0000  
 trnqsmod            0.         0.         0.         0.      
 acnqsmod            0.         0.         0.         0.      
 rbodymod            1.0000     1.0000     1.0000     1.0000  
 rgatemod            1.0000     1.0000     1.0000     1.0000  
 geomod              0.         0.         0.         0.      
 rgeomod             0.         0.         0.         0.      
 delvto              0.         0.         0.         0.      
 mulu0               1.0000     1.0000     1.0000     1.0000  
 delk1               0.         0.         0.         0.      
 delnfct             0.         0.         0.         0.      
 deltox              0.         0.         0.         0.      
 sa                  0.         0.         0.         0.      
 sb                  0.         0.         0.         0.      
 sd                  0.         0.         0.         0.      
 saeff               0.         0.         0.         0.      
 sbeff               0.         0.         0.         0.      
  
  
                                                               
 element name        4:m1        4:m0       4:m2       4:m3    
 drain               0:bl_b63    0:bl63     4:bit_b    4:bit   
 gate                0:0         0:0        4:bit      4:bit_b 
 source              4:bit_b     4:bit      0:vdd      0:vdd   
 bulk                0:0         0:0        0:vdd!     0:vdd!  
 model               0:nmos      0:nmos     0:pmos     0:pmos  
 w eff              19.8120u    19.8120u   19.8120u   19.8120u 
 l eff              29.0000n    29.0000n   29.0000n   29.0000n 
 rd eff              0.          0.         0.         0.      
 rs eff              0.          0.         0.         0.      
 cdsat               1.9990f     1.9990f    1.9990f    1.9990f 
 cssat               1.9990f     1.9990f    1.9990f    1.9990f 
 capbd             133.6681a   133.6681a  133.6681a  133.6681a 
 capbs             116.1033a   116.1033a  116.1033a  116.1033a 
 temp               25.0000     25.0000    25.0000    25.0000  
 aic                                                           
 nf                  1.0000      1.0000     1.0000     1.0000  
 min                 0.          0.         0.         0.      
 rbdb               15.0000     15.0000    15.0000    15.0000  
 rbsb               15.0000     15.0000    15.0000    15.0000  
 rbpb                5.0000      5.0000     5.0000     5.0000  
 rbps               15.0000     15.0000    15.0000    15.0000  
 rbpd               15.0000     15.0000    15.0000    15.0000  
 trnqsmod            0.          0.         0.         0.      
 acnqsmod            0.          0.         0.         0.      
 rbodymod            1.0000      1.0000     1.0000     1.0000  
 rgatemod            1.0000      1.0000     1.0000     1.0000  
 geomod              0.          0.         0.         0.      
 rgeomod             0.          0.         0.         0.      
 delvto              0.          0.         0.         0.      
 mulu0               1.0000      1.0000     1.0000     1.0000  
 delk1               0.          0.         0.         0.      
 delnfct             0.          0.         0.         0.      
 deltox              0.          0.         0.         0.      
 sa                  0.          0.         0.         0.      
 sb                  0.          0.         0.         0.      
 sd                  0.          0.         0.         0.      
 saeff               0.          0.         0.         0.      
 sbeff               0.          0.         0.         0.      
  
  
                                                              
 element name        5:m5       5:m4       5:m1       5:m0    
 drain               5:bit      5:bit_b    0:net56    0:net57 
 gate                5:bit_b    5:bit      0:0        0:0     
 source              0:0        0:0        5:bit_b    5:bit   
 bulk                0:0        0:0        0:0        0:0     
 model               0:nmos     0:nmos     0:nmos     0:nmos  
 w eff               7.8710m    7.8710m    5.0322m    5.0322m 
 l eff              29.0000n   29.0000n   29.0000n   29.0000n 
 rd eff              0.         0.         0.         0.      
 rs eff              0.         0.         0.         0.      
 cdsat             741.2026f  741.2026f  507.7401f  507.7401f 
 cssat             741.2026f  741.2026f  507.7401f  507.7401f 
 capbd             178.5462a  178.5462a  133.6681a  133.6681a 
 capbs             152.1990a  152.1990a  116.1033a  116.1033a 
 temp               25.0000    25.0000    25.0000    25.0000  
 aic                                                          
 nf                  1.0000     1.0000     1.0000     1.0000  
 min                 0.         0.         0.         0.      
 rbdb               15.0000    15.0000    15.0000    15.0000  
 rbsb               15.0000    15.0000    15.0000    15.0000  
 rbpb                5.0000     5.0000     5.0000     5.0000  
 rbps               15.0000    15.0000    15.0000    15.0000  
 rbpd               15.0000    15.0000    15.0000    15.0000  
 trnqsmod            0.         0.         0.         0.      
 acnqsmod            0.         0.         0.         0.      
 rbodymod            1.0000     1.0000     1.0000     1.0000  
 rgatemod            1.0000     1.0000     1.0000     1.0000  
 geomod              0.         0.         0.         0.      
 rgeomod             0.         0.         0.         0.      
 delvto              0.         0.         0.         0.      
 mulu0               1.0000     1.0000     1.0000     1.0000  
 delk1               0.         0.         0.         0.      
 delnfct             0.         0.         0.         0.      
 deltox              0.         0.         0.         0.      
 sa                  0.         0.         0.         0.      
 sb                  0.         0.         0.         0.      
 sd                  0.         0.         0.         0.      
 saeff               0.         0.         0.         0.      
 sbeff               0.         0.         0.         0.      
  
  
                                                              
 element name        5:m2       5:m3       6:m5       6:m4    
 drain               5:bit_b    5:bit      6:bit      6:bit_b 
 gate                5:bit      5:bit_b    6:bit_b    6:bit   
 source              0:vdd      0:vdd      0:0        0:0     
 bulk                0:vdd!     0:vdd!     0:0        0:0     
 model               0:pmos     0:pmos     0:nmos     0:nmos  
 w eff               5.0322m    5.0322m   30.9880u   30.9880u 
 l eff              29.0000n   29.0000n   29.0000n   29.0000n 
 rd eff              0.         0.         0.         0.      
 rs eff              0.         0.         0.         0.      
 cdsat             507.7401f  507.7401f    2.9181f    2.9181f 
 cssat             507.7401f  507.7401f    2.9181f    2.9181f 
 capbd             133.6681a  133.6681a  178.5462a  178.5462a 
 capbs             116.1033a  116.1033a  152.1990a  152.1990a 
 temp               25.0000    25.0000    25.0000    25.0000  
 aic                                                          
 nf                  1.0000     1.0000     1.0000     1.0000  
 min                 0.         0.         0.         0.      
 rbdb               15.0000    15.0000    15.0000    15.0000  
 rbsb               15.0000    15.0000    15.0000    15.0000  
 rbpb                5.0000     5.0000     5.0000     5.0000  
 rbps               15.0000    15.0000    15.0000    15.0000  
 rbpd               15.0000    15.0000    15.0000    15.0000  
 trnqsmod            0.         0.         0.         0.      
 acnqsmod            0.         0.         0.         0.      
 rbodymod            1.0000     1.0000     1.0000     1.0000  
 rgatemod            1.0000     1.0000     1.0000     1.0000  
 geomod              0.         0.         0.         0.      
 rgeomod             0.         0.         0.         0.      
 delvto              0.         0.         0.         0.      
 mulu0               1.0000     1.0000     1.0000     1.0000  
 delk1               0.         0.         0.         0.      
 delnfct             0.         0.         0.         0.      
 deltox              0.         0.         0.         0.      
 sa                  0.         0.         0.         0.      
 sb                  0.         0.         0.         0.      
 sd                  0.         0.         0.         0.      
 saeff               0.         0.         0.         0.      
 sbeff               0.         0.         0.         0.      
  
  
                                                              
 element name        6:m1       6:m0       6:m2       6:m3    
 drain               0:bl_b0    0:bl0      6:bit_b    6:bit   
 gate                0:0        0:0        6:bit      6:bit_b 
 source              6:bit_b    6:bit      0:vdd      0:vdd   
 bulk                0:0        0:0        0:vdd!     0:vdd!  
 model               0:nmos     0:nmos     0:pmos     0:pmos  
 w eff              19.8120u   19.8120u   19.8120u   19.8120u 
 l eff              29.0000n   29.0000n   29.0000n   29.0000n 
 rd eff              0.         0.         0.         0.      
 rs eff              0.         0.         0.         0.      
 cdsat               1.9990f    1.9990f    1.9990f    1.9990f 
 cssat               1.9990f    1.9990f    1.9990f    1.9990f 
 capbd             133.6681a  133.6681a  133.6681a  133.6681a 
 capbs             116.1033a  116.1033a  116.1033a  116.1033a 
 temp               25.0000    25.0000    25.0000    25.0000  
 aic                                                          
 nf                  1.0000     1.0000     1.0000     1.0000  
 min                 0.         0.         0.         0.      
 rbdb               15.0000    15.0000    15.0000    15.0000  
 rbsb               15.0000    15.0000    15.0000    15.0000  
 rbpb                5.0000     5.0000     5.0000     5.0000  
 rbps               15.0000    15.0000    15.0000    15.0000  
 rbpd               15.0000    15.0000    15.0000    15.0000  
 trnqsmod            0.         0.         0.         0.      
 acnqsmod            0.         0.         0.         0.      
 rbodymod            1.0000     1.0000     1.0000     1.0000  
 rgatemod            1.0000     1.0000     1.0000     1.0000  
 geomod              0.         0.         0.         0.      
 rgeomod             0.         0.         0.         0.      
 delvto              0.         0.         0.         0.      
 mulu0               1.0000     1.0000     1.0000     1.0000  
 delk1               0.         0.         0.         0.      
 delnfct             0.         0.         0.         0.      
 deltox              0.         0.         0.         0.      
 sa                  0.         0.         0.         0.      
 sb                  0.         0.         0.         0.      
 sd                  0.         0.         0.         0.      
 saeff               0.         0.         0.         0.      
 sbeff               0.         0.         0.         0.      
  
  
                                                               
 element name        7:m5       7:m4       7:m1        7:m0    
 drain               7:bit      7:bit_b    0:bl_b63    0:bl63  
 gate                7:bit_b    7:bit      0:wl0       0:wl0   
 source              0:0        0:0        7:bit_b     7:bit   
 bulk                0:0        0:0        0:0         0:0     
 model               0:nmos     0:nmos     0:nmos      0:nmos  
 w eff             122.0000n  122.0000n   78.0000n    78.0000n 
 l eff              29.0000n   29.0000n   29.0000n    29.0000n 
 rd eff              0.         0.         0.          0.      
 rs eff              0.         0.         0.          0.      
 cdsat              11.4887a   11.4887a    7.8700a     7.8700a 
 cssat              11.4887a   11.4887a    7.8700a     7.8700a 
 capbd             178.5462a  178.5462a  133.6681a   133.6681a 
 capbs             152.1990a  152.1990a  116.1033a   116.1033a 
 temp               25.0000    25.0000    25.0000     25.0000  
 aic                                                           
 nf                  1.0000     1.0000     1.0000      1.0000  
 min                 0.         0.         0.          0.      
 rbdb               15.0000    15.0000    15.0000     15.0000  
 rbsb               15.0000    15.0000    15.0000     15.0000  
 rbpb                5.0000     5.0000     5.0000      5.0000  
 rbps               15.0000    15.0000    15.0000     15.0000  
 rbpd               15.0000    15.0000    15.0000     15.0000  
 trnqsmod            0.         0.         0.          0.      
 acnqsmod            0.         0.         0.          0.      
 rbodymod            1.0000     1.0000     1.0000      1.0000  
 rgatemod            1.0000     1.0000     1.0000      1.0000  
 geomod              0.         0.         0.          0.      
 rgeomod             0.         0.         0.          0.      
 delvto              0.         0.         0.          0.      
 mulu0               1.0000     1.0000     1.0000      1.0000  
 delk1               0.         0.         0.          0.      
 delnfct             0.         0.         0.          0.      
 deltox              0.         0.         0.          0.      
 sa                  0.         0.         0.          0.      
 sb                  0.         0.         0.          0.      
 sd                  0.         0.         0.          0.      
 saeff               0.         0.         0.          0.      
 sbeff               0.         0.         0.          0.      
  
  
                                                              
 element name        7:m2       7:m3       8:m5       8:m4    
 drain               7:bit_b    7:bit      8:bit      8:bit_b 
 gate                7:bit      7:bit_b    8:bit_b    8:bit   
 source              0:vdd      0:vdd      0:0        0:0     
 bulk                0:vdd!     0:vdd!     0:0        0:0     
 model               0:pmos     0:pmos     0:nmos     0:nmos  
 w eff              78.0000n   78.0000n   30.9880u   30.9880u 
 l eff              29.0000n   29.0000n   29.0000n   29.0000n 
 rd eff              0.         0.         0.         0.      
 rs eff              0.         0.         0.         0.      
 cdsat               7.8700a    7.8700a    2.9181f    2.9181f 
 cssat               7.8700a    7.8700a    2.9181f    2.9181f 
 capbd             133.6681a  133.6681a  178.5462a  178.5462a 
 capbs             116.1033a  116.1033a  152.1990a  152.1990a 
 temp               25.0000    25.0000    25.0000    25.0000  
 aic                                                          
 nf                  1.0000     1.0000     1.0000     1.0000  
 min                 0.         0.         0.         0.      
 rbdb               15.0000    15.0000    15.0000    15.0000  
 rbsb               15.0000    15.0000    15.0000    15.0000  
 rbpb                5.0000     5.0000     5.0000     5.0000  
 rbps               15.0000    15.0000    15.0000    15.0000  
 rbpd               15.0000    15.0000    15.0000    15.0000  
 trnqsmod            0.         0.         0.         0.      
 acnqsmod            0.         0.         0.         0.      
 rbodymod            1.0000     1.0000     1.0000     1.0000  
 rgatemod            1.0000     1.0000     1.0000     1.0000  
 geomod              0.         0.         0.         0.      
 rgeomod             0.         0.         0.         0.      
 delvto              0.         0.         0.         0.      
 mulu0               1.0000     1.0000     1.0000     1.0000  
 delk1               0.         0.         0.         0.      
 delnfct             0.         0.         0.         0.      
 deltox              0.         0.         0.         0.      
 sa                  0.         0.         0.         0.      
 sb                  0.         0.         0.         0.      
 sd                  0.         0.         0.         0.      
 saeff               0.         0.         0.         0.      
 sbeff               0.         0.         0.         0.      
  
  
                                                              
 element name        8:m1       8:m0       8:m2       8:m3    
 drain               0:net56    0:net57    8:bit_b    8:bit   
 gate                0:wl0      0:wl0      8:bit      8:bit_b 
 source              8:bit_b    8:bit      0:vdd      0:vdd   
 bulk                0:0        0:0        0:vdd!     0:vdd!  
 model               0:nmos     0:nmos     0:pmos     0:pmos  
 w eff              19.8120u   19.8120u   19.8120u   19.8120u 
 l eff              29.0000n   29.0000n   29.0000n   29.0000n 
 rd eff              0.         0.         0.         0.      
 rs eff              0.         0.         0.         0.      
 cdsat               1.9990f    1.9990f    1.9990f    1.9990f 
 cssat               1.9990f    1.9990f    1.9990f    1.9990f 
 capbd             133.6681a  133.6681a  133.6681a  133.6681a 
 capbs             116.1033a  116.1033a  116.1033a  116.1033a 
 temp               25.0000    25.0000    25.0000    25.0000  
 aic                                                          
 nf                  1.0000     1.0000     1.0000     1.0000  
 min                 0.         0.         0.         0.      
 rbdb               15.0000    15.0000    15.0000    15.0000  
 rbsb               15.0000    15.0000    15.0000    15.0000  
 rbpb                5.0000     5.0000     5.0000     5.0000  
 rbps               15.0000    15.0000    15.0000    15.0000  
 rbpd               15.0000    15.0000    15.0000    15.0000  
 trnqsmod            0.         0.         0.         0.      
 acnqsmod            0.         0.         0.         0.      
 rbodymod            1.0000     1.0000     1.0000     1.0000  
 rgatemod            1.0000     1.0000     1.0000     1.0000  
 geomod              0.         0.         0.         0.      
 rgeomod             0.         0.         0.         0.      
 delvto              0.         0.         0.         0.      
 mulu0               1.0000     1.0000     1.0000     1.0000  
 delk1               0.         0.         0.         0.      
 delnfct             0.         0.         0.         0.      
 deltox              0.         0.         0.         0.      
 sa                  0.         0.         0.         0.      
 sb                  0.         0.         0.         0.      
 sd                  0.         0.         0.         0.      
 saeff               0.         0.         0.         0.      
 sbeff               0.         0.         0.         0.      
  
  
                                                              
 element name        9:m5       9:m4       9:m1       9:m0    
 drain               9:bit      9:bit_b    0:bl_b0    0:bl0   
 gate                9:bit_b    9:bit      0:wl0      0:wl0   
 source              0:0        0:0        9:bit_b    9:bit   
 bulk                0:0        0:0        0:0        0:0     
 model               0:nmos     0:nmos     0:nmos     0:nmos  
 w eff             122.0000n  122.0000n   78.0000n   78.0000n 
 l eff              29.0000n   29.0000n   29.0000n   29.0000n 
 rd eff              0.         0.         0.         0.      
 rs eff              0.         0.         0.         0.      
 cdsat              11.4887a   11.4887a    7.8700a    7.8700a 
 cssat              11.4887a   11.4887a    7.8700a    7.8700a 
 capbd             178.5462a  178.5462a  133.6681a  133.6681a 
 capbs             152.1990a  152.1990a  116.1033a  116.1033a 
 temp               25.0000    25.0000    25.0000    25.0000  
 aic                                                          
 nf                  1.0000     1.0000     1.0000     1.0000  
 min                 0.         0.         0.         0.      
 rbdb               15.0000    15.0000    15.0000    15.0000  
 rbsb               15.0000    15.0000    15.0000    15.0000  
 rbpb                5.0000     5.0000     5.0000     5.0000  
 rbps               15.0000    15.0000    15.0000    15.0000  
 rbpd               15.0000    15.0000    15.0000    15.0000  
 trnqsmod            0.         0.         0.         0.      
 acnqsmod            0.         0.         0.         0.      
 rbodymod            1.0000     1.0000     1.0000     1.0000  
 rgatemod            1.0000     1.0000     1.0000     1.0000  
 geomod              0.         0.         0.         0.      
 rgeomod             0.         0.         0.         0.      
 delvto              0.         0.         0.         0.      
 mulu0               1.0000     1.0000     1.0000     1.0000  
 delk1               0.         0.         0.         0.      
 delnfct             0.         0.         0.         0.      
 deltox              0.         0.         0.         0.      
 sa                  0.         0.         0.         0.      
 sb                  0.         0.         0.         0.      
 sd                  0.         0.         0.         0.      
 saeff               0.         0.         0.         0.      
 sbeff               0.         0.         0.         0.      
  
  
                                                                
 element name        9:m2       9:m3      10:m5       10:m1     
 drain               9:bit_b    9:bit      0:bl0       0:bl0    
 gate                9:bit      9:bit_b    0:blpc_b    0:blpc_b 
 source              0:vdd      0:vdd      0:vdd!      0:bl_b0  
 bulk                0:vdd!     0:vdd!     0:vdd!      0:vdd!   
 model               0:pmos     0:pmos     0:pmos      0:pmos   
 w eff              78.0000n   78.0000n    1.7500u     1.7500u  
 l eff              29.0000n   29.0000n   29.0000n    29.0000n  
 rd eff              0.         0.         0.          0.       
 rs eff              0.         0.         0.          0.       
 cdsat               7.8700a    7.8700a  145.3797a   145.3797a  
 cssat               7.8700a    7.8700a  145.3797a   145.3797a  
 capbd             133.6681a  133.6681a    1.8390f     1.8390f  
 capbs             116.1033a  116.1033a    1.4877f     1.4877f  
 temp               25.0000    25.0000    25.0000     25.0000   
 aic                                                            
 nf                  1.0000     1.0000     1.0000      1.0000   
 min                 0.         0.         0.          0.       
 rbdb               15.0000    15.0000    15.0000     15.0000   
 rbsb               15.0000    15.0000    15.0000     15.0000   
 rbpb                5.0000     5.0000     5.0000      5.0000   
 rbps               15.0000    15.0000    15.0000     15.0000   
 rbpd               15.0000    15.0000    15.0000     15.0000   
 trnqsmod            0.         0.         0.          0.       
 acnqsmod            0.         0.         0.          0.       
 rbodymod            1.0000     1.0000     1.0000      1.0000   
 rgatemod            1.0000     1.0000     1.0000      1.0000   
 geomod              0.         0.         0.          0.       
 rgeomod             0.         0.         0.          0.       
 delvto              0.         0.         0.          0.       
 mulu0               1.0000     1.0000     1.0000      1.0000   
 delk1               0.         0.         0.          0.       
 delnfct             0.         0.         0.          0.       
 deltox              0.         0.         0.          0.       
 sa                  0.         0.         0.          0.       
 sb                  0.         0.         0.          0.       
 sd                  0.         0.         0.          0.       
 saeff               0.         0.         0.          0.       
 sbeff               0.         0.         0.          0.       
  
  
                                                                
 element name       10:m0       10:m4      10:m3      11:m5     
 drain               0:bl_b0    10:net23   10:net26    0:net57  
 gate                0:blpc_b    0:0        0:0        0:blpc_b 
 source              0:vdd!      0:bl_b0    0:bl0      0:vdd!   
 bulk                0:vdd!      0:0        0:0        0:vdd!   
 model               0:pmos      0:nmos     0:nmos     0:pmos   
 w eff               1.7500u     1.9700u    1.9700u  444.5000u  
 l eff              29.0000n    29.0000n   29.0000n   29.0000n  
 rd eff              0.          0.         0.         0.       
 rs eff              0.          0.         0.         0.       
 cdsat             145.3797a   163.4731a  163.4731a   36.9264f  
 cssat             145.3797a   163.4731a  163.4731a   36.9264f  
 capbd               1.8390f     2.0634f    2.0634f    1.8390f  
 capbs               1.4877f     1.6682f    1.6682f    1.4877f  
 temp               25.0000     25.0000    25.0000    25.0000   
 aic                                                            
 nf                  1.0000      1.0000     1.0000     1.0000   
 min                 0.          0.         0.         0.       
 rbdb               15.0000     15.0000    15.0000    15.0000   
 rbsb               15.0000     15.0000    15.0000    15.0000   
 rbpb                5.0000      5.0000     5.0000     5.0000   
 rbps               15.0000     15.0000    15.0000    15.0000   
 rbpd               15.0000     15.0000    15.0000    15.0000   
 trnqsmod            0.          0.         0.         0.       
 acnqsmod            0.          0.         0.         0.       
 rbodymod            1.0000      1.0000     1.0000     1.0000   
 rgatemod            1.0000      1.0000     1.0000     1.0000   
 geomod              0.          0.         0.         0.       
 rgeomod             0.          0.         0.         0.       
 delvto              0.          0.         0.         0.       
 mulu0               1.0000      1.0000     1.0000     1.0000   
 delk1               0.          0.         0.         0.       
 delnfct             0.          0.         0.         0.       
 deltox              0.          0.         0.         0.       
 sa                  0.          0.         0.         0.       
 sb                  0.          0.         0.         0.       
 sd                  0.          0.         0.         0.       
 saeff               0.          0.         0.         0.       
 sbeff               0.          0.         0.         0.       
  
  
                                                                
 element name       11:m1       11:m0       11:m4      11:m3    
 drain               0:net57     0:net56    11:net23   11:net26 
 gate                0:blpc_b    0:blpc_b    0:0        0:0     
 source              0:net56     0:vdd!      0:net56    0:net57 
 bulk                0:vdd!      0:vdd!      0:0        0:0     
 model               0:pmos      0:pmos      0:nmos     0:nmos  
 w eff             444.5000u   444.5000u   500.3800u  500.3800u 
 l eff              29.0000n    29.0000n    29.0000n   29.0000n 
 rd eff              0.          0.          0.         0.      
 rs eff              0.          0.          0.         0.      
 cdsat              36.9264f    36.9264f    41.5222f   41.5222f 
 cssat              36.9264f    36.9264f    41.5222f   41.5222f 
 capbd               1.8390f     1.8390f     2.0634f    2.0634f 
 capbs               1.4877f     1.4877f     1.6682f    1.6682f 
 temp               25.0000     25.0000     25.0000    25.0000  
 aic                                                            
 nf                  1.0000      1.0000      1.0000     1.0000  
 min                 0.          0.          0.         0.      
 rbdb               15.0000     15.0000     15.0000    15.0000  
 rbsb               15.0000     15.0000     15.0000    15.0000  
 rbpb                5.0000      5.0000      5.0000     5.0000  
 rbps               15.0000     15.0000     15.0000    15.0000  
 rbpd               15.0000     15.0000     15.0000    15.0000  
 trnqsmod            0.          0.          0.         0.      
 acnqsmod            0.          0.          0.         0.      
 rbodymod            1.0000      1.0000      1.0000     1.0000  
 rgatemod            1.0000      1.0000      1.0000     1.0000  
 geomod              0.          0.          0.         0.      
 rgeomod             0.          0.          0.         0.      
 delvto              0.          0.          0.         0.      
 mulu0               1.0000      1.0000      1.0000     1.0000  
 delk1               0.          0.          0.         0.      
 delnfct             0.          0.          0.         0.      
 deltox              0.          0.          0.         0.      
 sa                  0.          0.          0.         0.      
 sb                  0.          0.          0.         0.      
 sd                  0.          0.          0.         0.      
 saeff               0.          0.          0.         0.      
 sbeff               0.          0.          0.         0.      
  
  
                                                                  
 element name       12:m5       12:m1       12:m0       12:m4     
 drain               0:bl63      0:bl63      0:bl_b63   12:net23  
 gate                0:blpc_b    0:blpc_b    0:blpc_b    0:0      
 source              0:vdd!      0:bl_b63    0:vdd!      0:bl_b63 
 bulk                0:vdd!      0:vdd!      0:vdd!      0:0      
 model               0:pmos      0:pmos      0:pmos      0:nmos   
 w eff               1.7500u     1.7500u     1.7500u     1.9700u  
 l eff              29.0000n    29.0000n    29.0000n    29.0000n  
 rd eff              0.          0.          0.          0.       
 rs eff              0.          0.          0.          0.       
 cdsat             145.3797a   145.3797a   145.3797a   163.4731a  
 cssat             145.3797a   145.3797a   145.3797a   163.4731a  
 capbd               1.8390f     1.8390f     1.8390f     2.0634f  
 capbs               1.4877f     1.4877f     1.4877f     1.6682f  
 temp               25.0000     25.0000     25.0000     25.0000   
 aic                                                              
 nf                  1.0000      1.0000      1.0000      1.0000   
 min                 0.          0.          0.          0.       
 rbdb               15.0000     15.0000     15.0000     15.0000   
 rbsb               15.0000     15.0000     15.0000     15.0000   
 rbpb                5.0000      5.0000      5.0000      5.0000   
 rbps               15.0000     15.0000     15.0000     15.0000   
 rbpd               15.0000     15.0000     15.0000     15.0000   
 trnqsmod            0.          0.          0.          0.       
 acnqsmod            0.          0.          0.          0.       
 rbodymod            1.0000      1.0000      1.0000      1.0000   
 rgatemod            1.0000      1.0000      1.0000      1.0000   
 geomod              0.          0.          0.          0.       
 rgeomod             0.          0.          0.          0.       
 delvto              0.          0.          0.          0.       
 mulu0               1.0000      1.0000      1.0000      1.0000   
 delk1               0.          0.          0.          0.       
 delnfct             0.          0.          0.          0.       
 deltox              0.          0.          0.          0.       
 sa                  0.          0.          0.          0.       
 sb                  0.          0.          0.          0.       
 sd                  0.          0.          0.          0.       
 saeff               0.          0.          0.          0.       
 sbeff               0.          0.          0.          0.       
  
  
                                                                 
 element name       12:m3      15:m1       15:m2       15:m3     
 drain              12:net26   15:in_sw1   15:in_sw2   15:in_sw3 
 gate                0:0        0:d1en_b    0:d2en_b    0:d3en_b 
 source              0:bl63     0:rbl       0:rbl       0:rbl    
 bulk                0:0        0:vdd!      0:vdd!      0:vdd!   
 model               0:nmos     0:pmos      0:pmos      0:pmos   
 w eff               1.9700u   78.0000n    78.0000n    78.0000n  
 l eff              29.0000n   29.0000n    29.0000n    29.0000n  
 rd eff              0.         0.          0.          0.       
 rs eff              0.         0.          0.          0.       
 cdsat             163.4731a    7.8700a     7.8700a     7.8700a  
 cssat             163.4731a    7.8700a     7.8700a     7.8700a  
 capbd               2.0634f  133.6681a   133.6681a   133.6681a  
 capbs               1.6682f  116.1033a   116.1033a   116.1033a  
 temp               25.0000    25.0000     25.0000     25.0000   
 aic                                                             
 nf                  1.0000     1.0000      1.0000      1.0000   
 min                 0.         0.          0.          0.       
 rbdb               15.0000    15.0000     15.0000     15.0000   
 rbsb               15.0000    15.0000     15.0000     15.0000   
 rbpb                5.0000     5.0000      5.0000      5.0000   
 rbps               15.0000    15.0000     15.0000     15.0000   
 rbpd               15.0000    15.0000     15.0000     15.0000   
 trnqsmod            0.         0.          0.          0.       
 acnqsmod            0.         0.          0.          0.       
 rbodymod            1.0000     1.0000      1.0000      1.0000   
 rgatemod            1.0000     1.0000      1.0000      1.0000   
 geomod              0.         0.          0.          0.       
 rgeomod             0.         0.          0.          0.       
 delvto              0.         0.          0.          0.       
 mulu0               1.0000     1.0000      1.0000      1.0000   
 delk1               0.         0.          0.          0.       
 delnfct             0.         0.          0.          0.       
 deltox              0.         0.          0.          0.       
 sa                  0.         0.          0.          0.       
 sb                  0.         0.          0.          0.       
 sd                  0.         0.          0.          0.       
 saeff               0.         0.          0.          0.       
 sbeff               0.         0.          0.          0.       
  
  
                                                               
 element name       15:m4       16:m1      16:m2      17:m1    
[...]
       37:m2                  0.               0.              10.9472a         10.9472a          0.               0.           
       37:m3                  0.               0.              10.9472a         10.9472a          0.               0.           
       38:m5                  0.               0.               1.2305f          1.2305f          0.               0.           
       38:m4                  0.               0.               1.2305f          1.2305f          0.               0.           
       38:m1                  0.               0.             842.9344a        842.9344a          0.               0.           
       38:m0                  0.               0.             842.9344a        842.9344a          0.               0.           
       38:m2                  0.               0.             842.9344a        842.9344a          0.               0.           
       38:m3                  0.               0.             842.9344a        842.9344a          0.               0.           
       39:m5                  0.               0.              15.9808a         15.9808a          0.               0.           
       39:m4                  0.               0.              15.9808a         15.9808a          0.               0.           
       39:m1                  0.               0.              10.9472a         10.9472a          0.               0.           
       39:m0                  0.               0.              10.9472a         10.9472a          0.               0.           
       39:m2                  0.               0.              10.9472a         10.9472a          0.               0.           
       39:m3                  0.               0.              10.9472a         10.9472a          0.               0.           
       40:m1                  0.               0.              61.2832a         61.2832a          0.               0.           
       40:m2                  0.               0.              31.0816a         31.0816a          0.               0.           
       41:m1                  0.               0.              61.2832a         61.2832a          0.               0.           
       41:m2                  0.               0.              31.0816a         31.0816a          0.               0.           
       42:m1                  0.               0.             252.5600a        252.5600a          0.               0.           
       42:m2                  0.               0.             126.7200a        126.7200a          0.               0.           
       43:m1                  0.               0.             252.5600a        252.5600a          0.               0.           
       43:m2                  0.               0.             126.7200a        126.7200a          0.               0.           
       48:m10                 0.               0.              23.5312a         23.5312a          0.               0.           
       48:m9                  0.               0.              23.5312a         23.5312a          0.               0.           
       48:m1                  0.               0.              23.5312a         23.5312a          0.               0.           
       48:m7                  0.               0.               8.4304a          8.4304a          0.               0.           
       48:m6                  0.               0.               8.4304a          8.4304a          0.               0.           
       48:m0                  0.               0.               8.4304a          8.4304a          0.               0.           
       49:m10                 0.               0.              23.5312a         23.5312a          0.               0.           
       49:m9                  0.               0.              23.5312a         23.5312a          0.               0.           
       49:m1                  0.               0.              23.5312a         23.5312a          0.               0.           
       49:m7                  0.               0.               8.4304a          8.4304a          0.               0.           
       49:m6                  0.               0.               8.4304a          8.4304a          0.               0.           
       49:m0                  0.               0.               8.4304a          8.4304a          0.               0.           
       50:m10                 0.               0.              23.5312a         23.5312a          0.               0.           
       50:m9                  0.               0.              23.5312a         23.5312a          0.               0.           
       50:m1                  0.               0.              23.5312a         23.5312a          0.               0.           
       50:m7                  0.               0.               8.4304a          8.4304a          0.               0.           
       50:m6                  0.               0.               8.4304a          8.4304a          0.               0.           
       50:m0                  0.               0.               8.4304a          8.4304a          0.               0.           
       51:m10                 0.               0.              23.5312a         23.5312a          0.               0.           
       51:m9                  0.               0.              23.5312a         23.5312a          0.               0.           
       51:m1                  0.               0.              23.5312a         23.5312a          0.               0.           
       51:m7                  0.               0.               8.4304a          8.4304a          0.               0.           
       51:m6                  0.               0.               8.4304a          8.4304a          0.               0.           
       51:m0                  0.               0.               8.4304a          8.4304a          0.               0.           
       52:m1                  0.               0.             174.5392a        174.5392a          0.               0.           
       52:m2                  0.               0.              31.0816a         31.0816a          0.               0.           
       53:m1                  0.               0.             174.5392a        174.5392a          0.               0.           
       53:m2                  0.               0.              31.0816a         31.0816a          0.               0.           
       54:m1                  0.               0.             174.5392a        174.5392a          0.               0.           
       54:m2                  0.               0.              31.0816a         31.0816a          0.               0.           
       55:m1                  0.               0.             174.5392a        174.5392a          0.               0.           
       55:m2                  0.               0.              31.0816a         31.0816a          0.               0.           
       56:m1                  0.               0.               2.5907f          2.5907f          0.               0.           
       56:m2                  0.               0.             433.7696a        433.7696a          0.               0.           
       57:m1                  0.               0.               2.5907f          2.5907f          0.               0.           
       57:m2                  0.               0.             433.7696a        433.7696a          0.               0.           
       58:m2                  0.               0.               1.7498f          1.7498f          0.               0.           
       58:m0                  0.               0.               1.7498f          1.7498f          0.               0.           
       58:m3                  0.               0.               4.9210f          4.9210f          0.               0.           
       58:m1                  0.               0.               4.9210f          4.9210f          0.               0.           
       59:m2                  0.               0.               1.7498f          1.7498f          0.               0.           
       59:m0                  0.               0.               1.7498f          1.7498f          0.               0.           
       59:m3                  0.               0.               4.9210f          4.9210f          0.               0.           
       59:m1                  0.               0.               4.9210f          4.9210f          0.               0.           
       60:m2                  0.               0.             116.6528a        116.6528a          0.               0.           
       60:m0                  0.               0.             116.6528a        116.6528a          0.               0.           
       60:m3                  0.               0.             328.0640a        328.0640a          0.               0.           
       60:m1                  0.               0.             328.0640a        328.0640a          0.               0.           
       61:m2                  0.               0.             116.6528a        116.6528a          0.               0.           
       61:m0                  0.               0.             116.6528a        116.6528a          0.               0.           
       61:m3                  0.               0.             328.0640a        328.0640a          0.               0.           
       61:m1                  0.               0.             328.0640a        328.0640a          0.               0.           
       62:m1                  0.               0.              38.8600f         38.8600f          0.               0.           
       62:m2                  0.               0.               6.5065f          6.5065f          0.               0.           
       63:m1                  0.               0.              38.8600f         38.8600f          0.               0.           
       63:m2                  0.               0.               6.5065f          6.5065f          0.               0.           
       64:m2                  0.               0.              61.2832a         61.2832a          0.               0.           
       64:m0                  0.               0.              61.2832a         61.2832a          0.               0.           
       64:m3                  0.               0.             169.5056a        169.5056a          0.               0.           
       64:m1                  0.               0.             169.5056a        169.5056a          0.               0.           
       65:m2                  0.               0.              61.2832a         61.2832a          0.               0.           
       65:m0                  0.               0.              61.2832a         61.2832a          0.               0.           
       65:m3                  0.               0.             169.5056a        169.5056a          0.               0.           
       65:m1                  0.               0.             169.5056a        169.5056a          0.               0.           
       66:m1                  0.               0.               1.6141f          1.6141f          0.               0.           
       66:m2                  0.               0.             270.1776a        270.1776a          0.               0.           
       67:m1                  0.               0.               1.6141f          1.6141f          0.               0.           
       67:m2                  0.               0.             270.1776a        270.1776a          0.               0.           
       68:m2                  0.               0.             183.8496a        183.8496a          0.               0.           
       68:m0                  0.               0.             183.8496a        183.8496a          0.               0.           
       68:m3                  0.               0.             508.5168a        508.5168a          0.               0.           
       68:m1                  0.               0.             508.5168a        508.5168a          0.               0.           
       69:m2                  0.               0.             183.8496a        183.8496a          0.               0.           
       69:m0                  0.               0.             183.8496a        183.8496a          0.               0.           
       69:m3                  0.               0.             508.5168a        508.5168a          0.               0.           
       69:m1                  0.               0.             508.5168a        508.5168a          0.               0.           
       70:m1                  0.               0.               4.8424f          4.8424f          0.               0.           
       70:m2                  0.               0.             810.5328a        810.5328a          0.               0.           
       71:m1                  0.               0.               4.8424f          4.8424f          0.               0.           
       71:m2                  0.               0.             810.5328a        810.5328a          0.               0.           
       72:m1                  0.               0.              21.0144a         21.0144a          0.               0.           
       72:m2                  0.               0.              10.9472a         10.9472a          0.               0.           
       73:m1                  0.               0.              31.0816a         31.0816a          0.               0.           
       73:m2                  0.               0.              61.2832a         61.2832a          0.               0.           
       74:m1                  0.               0.              31.0816a         31.0816a          0.               0.           
       74:m2                  0.               0.              61.2832a         61.2832a          0.               0.           
       79:m_0                 0.               0.              21.0144a         21.0144a          0.               0.           
       79:m_1                 0.               0.              61.2832a         61.2832a          0.               0.           
       80:m_0                 0.               0.              84.0576a         84.0576a          0.               0.           
       80:m_1                 0.               0.             245.1328a        245.1328a          0.               0.           
       81:m_0                 0.               0.             336.2304a        336.2304a          0.               0.           
       81:m_1                 0.               0.             980.5312a        980.5312a          0.               0.           
       82:m_0                 0.               0.               1.3449f          1.3449f          0.               0.           
       82:m_1                 0.               0.               3.9221f          3.9221f          0.               0.           
       83:m_0                 0.               0.              21.0144a         21.0144a          0.               0.           
       83:m_1                 0.               0.              61.2832a         61.2832a          0.               0.           
       84:m_0                 0.               0.              84.0576a         84.0576a          0.               0.           
       84:m_1                 0.               0.             245.1328a        245.1328a          0.               0.           
       85:m_0                 0.               0.             336.2304a        336.2304a          0.               0.           
       85:m_1                 0.               0.             980.5312a        980.5312a          0.               0.           
       86:m_0                 0.               0.               1.3449f          1.3449f          0.               0.           
       86:m_1                 0.               0.               3.9221f          3.9221f          0.               0.           
       87:m_0                 0.               0.              21.0144a         21.0144a          0.               0.           
       87:m_1                 0.               0.              61.2832a         61.2832a          0.               0.           
       88:m_0                 0.               0.              84.0576a         84.0576a          0.               0.           
       88:m_1                 0.               0.             245.1328a        245.1328a          0.               0.           
       89:m_0                 0.               0.             336.2304a        336.2304a          0.               0.           
       89:m_1                 0.               0.             980.5312a        980.5312a          0.               0.           
       90:m_0                 0.               0.               1.3449f          1.3449f          0.               0.           
       90:m_1                 0.               0.               3.9221f          3.9221f          0.               0.           
       91:m_0                 0.               0.              21.0144a         21.0144a          0.               0.           
       91:m_1                 0.               0.              61.2832a         61.2832a          0.               0.           
       92:m_0                 0.               0.              84.0576a         84.0576a          0.               0.           
       92:m_1                 0.               0.             245.1328a        245.1328a          0.               0.           
       93:m_0                 0.               0.             336.2304a        336.2304a          0.               0.           
       93:m_1                 0.               0.             980.5312a        980.5312a          0.               0.           
       94:m_0                 0.               0.               1.3449f          1.3449f          0.               0.           
       94:m_1                 0.               0.               3.9221f          3.9221f          0.               0.           

          ***** job concluded
1****** HSPICE -- F-2011.09-SP2 32-BIT (Feb 27 2012) linux ******               
 ******  
 * file: sense_timing.sp

  ******  job statistics summary tnom=  25.000 temp=  27.000 *****
  
  
 ******  Machine Information  ******
 CPU:
 model name	: Quad-Core AMD Opteron(tm) Processor 2384
 cpu MHz	: 2700.000
  
 OS:
 Linux version 3.2.0-36-generic (buildd@allspice) (gcc version 4.6.3 (Ubuntu/Lin
 aro 4.6.3-1ubuntu5) ) #57-Ubuntu SMP Tue Jan 8 21:44:52 UTC 2013


  ******  HSPICE Threads Information  ******

  Command Line Threads Count :     1
  Available CPU Count        :     8
  Actual Threads Count       :     1


  ******  Circuit Statistics  ******
  # nodes       =    1216 # elements   =     350
  # resistors   =       0 # capacitors =      39 # inductors   =       0
  # mutual_inds =       0 # vccs       =       0 # vcvs        =       4
  # cccs        =       8 # ccvs       =       0 # volt_srcs   =      35
  # curr_srcs   =       0 # diodes     =       0 # bjts        =       0
  # jfets       =       0 # mosfets    =     264 # U elements  =       0
  # T elements  =       0 # W elements =       0 # B elements  =       0
  # S elements  =       0 # P elements =       0 # va device   =       0
  # vector_srcs =       0


  ******  Runtime Statistics (seconds)  ******

  analysis           time    # points   tot. iter  conv.iter
  op point           0.80           1         544
  transient         85.64      105005      178402       20769 rev=      3095
  readin             0.02
  errchk             0.06
  setup              0.02
  output             0.00


           peak memory used         92.23 megabytes
           total cpu time           86.54 seconds
           total elapsed time       88.60 seconds
           job started at     16:13:54 03/10/2013
           job ended   at     16:15:22 03/10/2013


 lic: Release hspice token(s) 
