$DATA1 SOURCE='HSPICE' VERSION='F-2011.09-SP2 32-BIT'
.TITLE '* file: sense_timing.sp'
 index            dc1              dc2              dc3               
                  dc4              td_ck2sae        td_rbl2sae        
                  td_ck2rbl        td_ck2wlr        td_ck2wlf         
                  td_wl2bl0        td_ck2bl0        td_wl2bl63        
                  td_ck2bl63       wl_pw            idsat             
                  mem_core_power   blpc_b_power     temper            
                  alter#            
 1                   1.0000           1.0000           1.0000         
                     1.0000         3.111e-10        1.107e-10        
                   2.042e-10        1.165e-10        4.667e-10        
                   1.561e-10        2.725e-10        1.571e-10        
                   2.736e-10        8.505e-10        6.475e-05        
                  -6.127e-04       -2.129e-03         27.0000         
                  1                 
 2                   0.               1.0000           1.0000         
                     1.0000         3.304e-10        1.128e-10        
                   2.217e-10        1.165e-10        4.668e-10        
                   1.561e-10        2.726e-10        1.571e-10        
                   2.736e-10        8.505e-10        6.476e-05        
                  -6.154e-04       -2.129e-03         27.0000         
                  1                 
 3                   0.               0.               1.0000         
                     1.0000         3.507e-10        1.149e-10        
                   2.403e-10        1.164e-10        4.667e-10        
                   1.560e-10        2.724e-10        1.570e-10        
                   2.735e-10        8.505e-10        6.474e-05        
                  -6.153e-04       -2.129e-03         27.0000         
                  1                 
 4                   0.               0.               0.             
                     1.0000         3.715e-10        1.168e-10        
                   2.596e-10        1.165e-10        4.668e-10        
                   1.561e-10        2.726e-10        1.571e-10        
                   2.736e-10        8.505e-10        6.475e-05        
                  -6.154e-04       -2.130e-03         27.0000         
                  1                 
 5                   0.               0.               0.             
                     0.             3.929e-10        1.186e-10        
                   2.795e-10        1.164e-10        4.667e-10        
                   1.560e-10        2.724e-10        1.570e-10        
                   2.735e-10        8.505e-10        6.476e-05        
                  -6.033e-04       -2.133e-03         27.0000         
                  1                 
