$DATA1 SOURCE='HSPICE' VERSION='F-2011.09-SP2 32-BIT'
.TITLE '* file: task3.sp'
 td_ck2wlr        td_ck2wlf        td_wl2bl0        td_ck2bl0         
 td_wl2bl63       td_ck2bl63       wl_pw            idsat             
 mem_core_power   blpc_b_power     temper           alter#            
  1.241e-10        4.409e-10        1.527e-10        2.768e-10        
  1.538e-10        2.778e-10        8.170e-10        6.480e-05        
 -6.142e-04       -2.168e-03         27.0000        1                 
