$DATA1 SOURCE='HSPICE' VERSION='F-2011.09-SP2 32-BIT'
.TITLE '* file: sense_timing.sp'
 index            dc1              dc2              dc3               
                  dc4              td_ck2sae        td_rbl2sae        
                  td_ck2wlr        td_ck2wlf        td_wl2bl0         
                  td_ck2bl0        td_wl2bl63       td_ck2bl63        
                  wl_pw            idsat            mem_core_power    
                  blpc_b_power     temper           alter#            
 1                   1.0000           1.0000           1.0000         
                     1.0000         3.265e-10        1.261e-10        
                   1.164e-10        4.667e-10        1.560e-10        
                   2.725e-10        1.570e-10        2.735e-10        
                   8.505e-10        6.477e-05       -6.116e-04        
                  -2.129e-03         27.0000        1                 
 2                   0.               1.0000           1.0000         
                     1.0000         3.461e-10        1.285e-10        
                   1.165e-10        4.666e-10        1.561e-10        
                   2.725e-10        1.571e-10        2.736e-10        
                   8.504e-10        6.477e-05       -6.153e-04        
                  -2.130e-03         27.0000        1                 
 3                   0.               0.               1.0000         
                     1.0000         3.664e-10        1.306e-10        
                   1.164e-10        4.668e-10        1.560e-10        
                   2.724e-10        1.570e-10        2.735e-10        
                   8.505e-10        6.475e-05       -6.214e-04        
                  -2.120e-03         27.0000        1                 
 4                   0.               0.               0.             
                     1.0000         3.874e-10        1.326e-10        
                   1.164e-10        4.667e-10        1.561e-10        
                   2.725e-10        1.571e-10        2.735e-10        
                   8.506e-10        6.477e-05       -6.118e-04        
                  -2.121e-03         27.0000        1                 
 5                   0.               0.               0.             
                     0.             4.088e-10        1.345e-10        
                   1.164e-10        4.667e-10        1.560e-10        
                   2.725e-10        1.571e-10        2.735e-10        
                   8.505e-10        6.475e-05       -6.150e-04        
                  -2.128e-03         27.0000        1                 
